data_crystal

_cell_length_a    30.19223
_cell_length_b    13.16656
_cell_length_c    15.86416
_cell_angle_alpha 88.42686
_cell_angle_beta  90.07064
_cell_angle_gamma 91.02663

_space_group_name_Hall 'P 1'
_space_group_name_H-M_alt 'P 1'

loop_
_symmetry_equiv_pos_as_xyz
 'x,y,z'

loop_
_atom_site_label
_atom_site_type_symbol
_atom_site_fract_x
_atom_site_fract_y
_atom_site_fract_z
_atom_site_charge
Al         Al      0.25078   0.13198   0.00193  1.6803100000
Al         Al      0.74935   0.36961   0.99729  1.6776500000
Al         Al      0.75078   0.12016  -0.00059  1.6738700000
Al         Al      0.24994   0.38214   0.00283  1.6802300000
Al         Al      0.25038   0.63178   0.00150  1.6753100000
Al         Al      0.74882   0.61970   0.00016  1.6797400000
Al         Al      0.24899   0.88128   0.00013  1.6828900000
Al         Al      0.74899   0.87008   0.00225  1.6756000000
H          H       0.04092   0.24593   0.28563  0.1126700000
H          H       0.15313   0.25350   0.50002  0.1199200000
H          H       0.69565   0.23926   0.03119  0.4297100000
H          H       0.95954   0.24563   0.28559  0.1127300000
H          H       0.84767   0.25171   0.49987  0.1192300000
H          H       0.95993   0.26102   0.71433  0.1121600000
H          H       0.04124   0.26145   0.71435  0.1115700000
H          H       0.53939   0.99662   0.28533  0.1118200000
H          H       0.65214   0.99568   0.49899  0.1197200000
H          H       0.45810  -0.00036   0.28604  0.1116300000
H          H       0.34686   0.00934   0.50135  0.1193900000
H          H       0.45966   0.01192   0.71490  0.1128500000
H          H       0.54093   0.00806   0.71426  0.1122000000
H          H       0.39813   0.15707   0.30185  0.1180200000
H          H       0.35141   0.15278   0.17141  0.1263700000
H          H       0.35108   0.35341   0.36993  0.1139900000
H          H       0.30636   0.35372   0.23691  0.1255600000
H          H       0.18796   0.09463   0.23445  0.1231100000
H          H       0.15136   0.40130   0.17282  0.1260100000
H          H       0.10455   0.40416   0.30292  0.1154800000
H          H       0.14317   0.09855   0.36697  0.1132100000
H          H       0.14808   0.10705   0.82867  0.1165600000
H          H       0.10202   0.10340   0.69791  0.1181400000
H          H       0.14603   0.40813   0.63285  0.1144000000
H          H       0.19036   0.41285   0.76586  0.1198800000
H          H       0.35152   0.35754   0.83209  0.1158600000
H          H       0.35586   0.16101   0.63155  0.1136900000
H          H       0.31179   0.16716   0.76459  0.1185200000
H          H       0.39709   0.35267   0.70118  0.1139800000
H          H       0.68672   0.33120   0.23195  0.1177700000
H          H       0.64869   0.14559   0.17014  0.1155000000
H          H       0.64258   0.33523   0.36503  0.1133600000
H          H       0.60219   0.14923   0.29983  0.1155800000
H          H       0.64938   0.14600   0.62980  0.1134200000
H          H       0.69397   0.14703   0.76286  0.1249000000
H          H       0.65269   0.34343   0.82241  0.1263300000
H          H       0.60606   0.33761   0.69177  0.1167500000
H          H       0.85383   0.10224   0.82924  0.1167600000
H          H       0.90024   0.10300   0.69903  0.1177700000
H          H       0.80863   0.40135   0.76327  0.1244100000
H          H       0.85327   0.40072   0.63046  0.1145200000
H          H       0.85190   0.39920   0.17180  0.1161600000
H          H       0.80973   0.09361   0.23541  0.1242300000
H          H       0.85444   0.09869   0.36822  0.1139600000
H          H       0.89859   0.40292   0.30175  0.1169000000
H          H       0.30441   0.75862   0.03400  0.4331100000
H          H       0.03881   0.73808   0.28622  0.1137000000
H          H       0.15171   0.74911   0.49902  0.1192000000
H          H       0.95743   0.73664   0.28713  0.1114600000
H          H       0.84622   0.74460   0.50279  0.1199000000
H          H       0.95914   0.75286   0.71582  0.1117100000
H          H       0.04046   0.75364   0.71496  0.1116700000
H          H       0.80366   0.49401   0.03459  0.4329200000
H          H       0.53858   0.48398   0.28468  0.1122200000
H          H       0.65248   0.48733   0.49615  0.1204800000
H          H       0.45732   0.49003   0.28681  0.1117400000
H          H       0.34740   0.50746   0.50387  0.1193600000
H          H       0.46117   0.50393   0.71557  0.1119100000
H          H       0.54248   0.49902   0.71337  0.1119500000
H          H       0.39981   0.65491   0.30637  0.1181100000
H          H       0.35306   0.65677   0.17620  0.1167100000
H          H       0.35267   0.85445   0.37046  0.1137800000
H          H       0.30792   0.84889   0.23787  0.1205600000
H          H       0.18814   0.59577   0.23376  0.1235300000
H          H       0.14709   0.89906   0.17167  0.1244600000
H          H       0.10041   0.89874   0.30204  0.1163100000
H          H       0.14364   0.59682   0.36671  0.1124000000
H          H       0.14690   0.60311   0.82976  0.1167700000
H          H       0.10024   0.59858   0.69997  0.1177800000
H          H       0.14697   0.89943   0.62883  0.1151400000
H          H       0.19188   0.90540   0.76111  0.1214000000
H          H       0.35057   0.86337   0.83134  0.1258800000
H          H       0.35853   0.65788   0.63557  0.1127700000
H          H       0.31469   0.66371   0.76910  0.1234300000
H          H       0.39688   0.85860   0.70071  0.1163000000
H          H       0.68804   0.84184   0.23590  0.1241600000
H          H       0.64797   0.63587   0.16829  0.1264500000
H          H       0.64333   0.84673   0.36837  0.1141600000
H          H       0.60182   0.63878   0.29930  0.1160200000
H          H       0.64302   0.64832   0.63160  0.1135300000
H          H       0.68786   0.65483   0.76414  0.1193300000
H          H       0.64446   0.84783   0.82887  0.1162200000
H          H       0.59790   0.84837   0.69859  0.1170600000
H          H       0.84947   0.59993   0.83186  0.1265000000
H          H       0.89550   0.59519   0.70093  0.1163500000
H          H       0.81244   0.90567   0.76764  0.1193000000
H          H       0.85658   0.89998   0.63472  0.1138500000
H          H       0.85022   0.89121   0.17368  0.1266600000
H          H       0.80675   0.58693   0.23891  0.1197500000
H          H       0.85173   0.59136   0.37117  0.1141300000
H          H       0.89742   0.89413   0.30350  0.1175900000
H          H       0.30504   0.26316   0.96962  0.4307500000
H          H       0.80408   0.99664   0.96527  0.4319300000
H          H       0.19395   0.00845   0.96971  0.4336400000
H          H       0.69411   0.74610   0.96590  0.4324300000
H          H       0.19646   0.50748   0.96324  0.4305700000
C          C       0.19991   0.24642   0.11845  0.6335700000
C          C       0.02292   0.24946   0.34475 -0.1293700000
C          C       0.02410   0.25348   0.49997  0.0011500000
C          C       0.09466   0.25328   0.42281  0.0222100000
C          C       0.04772   0.25311   0.42168  0.0238400000
C          C       0.11709   0.25353   0.50005 -0.1932400000
C          C       0.16982   0.16209   0.25052 -0.0858100000
C          C       0.14479   0.16458   0.32419 -0.1487300000
C          C       0.12291   0.33656   0.28803 -0.1482800000
C          C       0.14876   0.33519   0.21534 -0.0878500000
C          C       0.80077   0.24208   0.11745  0.6301400000
C          C       0.97765   0.24936   0.34472 -0.1314000000
C          C       0.97670   0.25327   0.49994  0.0005400000
C          C       0.90605   0.25289   0.42267  0.0202800000
C          C       0.95299   0.25289   0.42161  0.0257100000
C          C       0.88372   0.25237   0.49988 -0.1937600000
C          C       0.80110   0.25242   0.88190  0.6353900000
C          C       0.97789   0.25728   0.65518 -0.1323800000
C          C       0.90614   0.25218   0.57713  0.0194400000
C          C       0.95309   0.25320   0.57827  0.0257400000
C          C       0.82864   0.25202   0.80422 -0.0608400000
C          C       0.87985   0.25201   0.65612  0.0861700000
C          C       0.82817   0.24594   0.19560 -0.0547000000
C          C       0.82899   0.16111   0.25111 -0.0864100000
C          C       0.85401   0.16422   0.32489 -0.1475500000
C          C       0.87962   0.25096   0.34366  0.0848700000
C          C       0.87899   0.33537   0.28741 -0.1492600000
C          C       0.85304   0.33341   0.21467 -0.0906300000
C          C       0.19914   0.26316   0.88378  0.6336100000
C          C       0.02315   0.25757   0.65520 -0.1319300000
C          C       0.09474   0.25367   0.57727  0.0172200000
C          C       0.04781   0.25387   0.57830  0.0249800000
C          C       0.17177   0.26043   0.80559 -0.0583800000
C          C       0.17107   0.34538   0.75018 -0.0897900000
C          C       0.14634   0.34242   0.67600 -0.1450000000
C          C       0.12097   0.25556   0.65656  0.0877400000
C          C       0.12147   0.17102   0.71273 -0.1500000000
C          C       0.14704   0.17295   0.78591 -0.0870500000
C          C       0.17214   0.24768   0.19589 -0.0590600000
C          C       0.12087   0.25153   0.34365  0.0827000000
C          C       0.82855   0.33631   0.74809 -0.0849900000
C          C       0.85349   0.33563   0.67427 -0.1473500000
C          C       0.88010   0.16818   0.71304 -0.1492700000
C          C       0.85431   0.16762   0.78583 -0.0893600000
C          C       0.69890   0.99032   0.11776  0.6342600000
C          C       0.52161   0.00046   0.34468 -0.1322500000
C          C       0.52322   0.00286   0.49995  0.0008100000
C          C       0.59356   0.00021   0.42209  0.0191500000
C          C       0.54663   0.00235   0.42140  0.0265400000
C          C       0.61612  -0.00218   0.49921 -0.1938800000
C          C       0.67106   0.99325   0.19503 -0.0607300000
C          C       0.66810   0.39814   0.24746 -0.0876900000
C          C       0.64349   0.40070   0.32160 -0.1504500000
C          C       0.61911   0.48708   0.34074  0.0851600000
C          C       0.62107   0.08202   0.28599 -0.1482200000
C          C       0.64695   0.08010   0.21336 -0.0868500000
C          C       0.29994  -0.00249   0.11857  0.6364200000
C          C       0.47636   0.00210   0.34507 -0.1309200000
C          C       0.47583   0.00492   0.50034  0.0013800000
C          C       0.40502   0.00765   0.42368  0.0193500000
C          C       0.45194   0.00605   0.42220  0.0254300000
C          C       0.38289   0.00824   0.50108 -0.1929300000
C          C       0.37852   0.00589   0.34473  0.0849600000
C          C       0.30168   0.01843   0.88426  0.6316400000
C          C       0.47743   0.00774   0.65558 -0.1319400000
C          C       0.40548   0.00716   0.57818  0.0206400000
C          C       0.45242   0.00556   0.57887  0.0237100000
C          C       0.32737   0.00023   0.19650 -0.0614900000
C          C       0.32659   0.41945   0.25337 -0.0855500000
C          C       0.35159   0.41955   0.32722 -0.1463900000
C          C       0.37832   0.08973   0.28783 -0.1502400000
C          C       0.35253   0.08755   0.21493 -0.0850400000
C          C       0.69926  -0.00090   0.88205  0.6280200000
C          C       0.52268   0.00557   0.65522 -0.1309100000
C          C       0.59400  -0.00191   0.57665  0.0204200000
C          C       0.54710   0.00109   0.57810  0.0251300000
C          C       0.67244   0.49983   0.80142 -0.0602300000
C          C       0.67317   0.08178   0.74755 -0.0865500000
C          C       0.64821   0.08095   0.67366 -0.1466400000
C          C       0.62054   0.99731   0.65552  0.0836600000
C          C       0.62406   0.40689   0.70767 -0.1493300000
C          C       0.64976   0.40992   0.78063 -0.0859500000
C          C       0.33043   0.51101   0.80853 -0.0569300000
C          C       0.33037   0.09991   0.74977 -0.0903800000
C          C       0.35497   0.09620   0.67565 -0.1486100000
C          C       0.37948   0.00966   0.65748  0.0851200000
C          C       0.37896   0.42067   0.71590 -0.1473200000
C          C       0.35364   0.42325   0.78915 -0.0888800000
C          C       0.19793   0.74683   0.11719  0.6273500000
C          C       0.02098   0.74156   0.34555 -0.1327700000
C          C       0.02267   0.74556   0.50077  0.0007900000
C          C       0.09298   0.74775   0.42256  0.0212400000
C          C       0.04603   0.74593   0.42214  0.0258400000
C          C       0.11565   0.74801   0.49953 -0.1919400000
C          C       0.16911   0.66187   0.24985 -0.0877500000
C          C       0.14421   0.66272   0.32373 -0.1493300000
C          C       0.11975   0.83258   0.28719 -0.1498500000
C          C       0.14556   0.83294   0.21433 -0.0891400000
C          C       0.79856   0.73631   0.12024  0.6354500000
C          C       0.97571   0.74076   0.34607 -0.1291700000
C          C       0.97525   0.74494   0.50130  0.0004500000
C          C       0.90433   0.74447   0.42486  0.0206700000
C          C       0.95128   0.74439   0.42324  0.0235600000
C          C       0.88226   0.74456   0.50240 -0.1943400000
C          C       0.80109   0.75574   0.88575  0.6317000000
C          C       0.97694   0.74922   0.65649 -0.1301600000
C          C       0.90493   0.74487   0.57941  0.0197900000
C          C       0.95188   0.74523   0.57989  0.0254200000
C          C       0.82858   0.75334   0.80787 -0.0577900000
C          C       0.87905   0.74730   0.65897  0.0848000000
C          C       0.82612   0.73852   0.19812 -0.0626600000
C          C       0.82654   0.65391   0.25388 -0.0894000000
C          C       0.85166   0.65667   0.32759 -0.1477900000
C          C       0.87774   0.74283   0.34598  0.0856100000
C          C       0.87745   0.82704   0.28941 -0.1492300000
C          C       0.85141   0.82558   0.21679 -0.0853100000
C          C       0.19926   0.75912   0.88187  0.6375500000
C          C       0.02221   0.74963   0.65598 -0.1333500000
C          C       0.09361   0.74686   0.57711  0.0169700000
C          C       0.04665   0.74615   0.57882  0.0260300000
C          C       0.17187   0.75504   0.80388 -0.0610000000
C          C       0.17184   0.83854   0.74691 -0.0881300000
C          C       0.14678   0.83489   0.67320 -0.1449900000
C          C       0.12031   0.74899   0.65581  0.0867000000
C          C       0.12035   0.66570   0.71331 -0.1477400000
C          C       0.14631   0.66812   0.78599 -0.0888900000
C          C       0.17018   0.74727   0.19490 -0.0544300000
C          C       0.11901   0.74777   0.34312  0.0824300000
C          C       0.83061   0.83804   0.75224 -0.0907500000
C          C       0.85523   0.83453   0.67813 -0.1472900000
C          C       0.87726   0.66309   0.71550 -0.1495100000
C          C       0.85184   0.66550   0.78872 -0.0863800000
C          C       0.69692   0.48148   0.11398  0.6318300000
C          C       0.52113   0.48909   0.34427 -0.1318700000
C          C       0.52355   0.49315   0.49943 -0.0003600000
C          C       0.59344   0.48923   0.42040  0.0221100000
C          C       0.54654   0.49135   0.42051  0.0241700000
C          C       0.61645   0.48850   0.49704 -0.1948500000
C          C       0.66958   0.48302   0.19198 -0.0586500000
C          C       0.66938   0.90886   0.25103 -0.0845800000
C          C       0.64439   0.91193   0.32467 -0.1465900000
C          C       0.61969  -0.00182   0.34291  0.0858800000
C          C       0.62042   0.57152   0.28444 -0.1469600000
C          C       0.64588   0.57012   0.21128 -0.0871800000
C          C       0.29976   0.50450   0.12075  0.6366300000
C          C       0.47591   0.49238   0.34546 -0.1313200000
C          C       0.47622   0.49633   0.50071  0.0006100000
C          C       0.40515   0.50267   0.42536  0.0205300000
C          C       0.45197   0.49811   0.42303  0.0253000000
C          C       0.38339   0.50430   0.50307 -0.1940000000
C          C       0.37843   0.50403   0.34674  0.0847000000
C          C       0.30286   0.51387   0.88627  0.6288700000
C          C       0.47864   0.49965   0.65593 -0.1310200000
C          C       0.40634   0.50183   0.57976  0.0201100000
C          C       0.45324   0.49820   0.57964  0.0249200000
C          C       0.32711   0.50515   0.19875 -0.0597800000
C          C       0.32766   0.91601   0.25267 -0.0892100000
C          C       0.35260   0.91943   0.32655 -0.1470000000
C          C       0.37912   0.58930   0.29135 -0.1492300000
C          C       0.35321   0.59044   0.21858 -0.0886900000
C          C       0.69953   0.50316   0.87971  0.6337900000
C          C       0.52387   0.49698   0.65471 -0.1305900000
C          C       0.59469   0.49024   0.57471  0.0199700000
C          C       0.54783   0.49243   0.57708  0.0258100000
C          C       0.67191  -0.00241   0.80380 -0.0551900000
C          C       0.66991   0.58584   0.74754 -0.0896300000
C          C       0.64494   0.58188   0.67372 -0.1458700000
C          C       0.62145   0.49274   0.65333  0.0856900000
C          C       0.61910   0.91353   0.71248 -0.1492000000
C          C       0.64499   0.91309   0.78534 -0.0902900000
C          C       0.32891   0.01589   0.80611 -0.0565500000
C          C       0.33259   0.59590   0.75311 -0.0859800000
C          C       0.35709   0.59232   0.67887 -0.1461600000
C          C       0.38074   0.50493   0.65947  0.0851800000
C          C       0.37817   0.92603   0.71464 -0.1488700000
C          C       0.35263   0.92849   0.78766 -0.0874200000
O          O       0.21743   0.16240   0.10006 -0.5886300000
O          O       0.72197   0.24335   0.99622 -0.9971500000
O          O       0.79572   0.32506   0.07474 -0.6229500000
O          O       0.79746   0.16935   0.92553 -0.6125400000
O          O       0.78437   0.15571   0.09873 -0.5924600000
O          O       0.21549   0.34946   0.90383 -0.6099400000
O          O       0.20425   0.32950   0.07556 -0.6009700000
O          O       0.20440   0.17958   0.92521 -0.6159800000
O          O       0.78300   0.33565   0.89990 -0.5790700000
O          O       0.71335   0.39610   0.09490 -0.6151800000
O          O       0.29578   0.08009   0.07577 -0.5939900000
O          O       0.29765   0.43047   0.92907 -0.6246500000
O          O       0.28229   0.41986   0.10080 -0.5813800000
O          O       0.71747   0.08385   0.90008 -0.5914600000
O          O       0.70435   0.07323   0.07461 -0.6130400000
O          O       0.70464   0.41994   0.92113 -0.5909300000
O          O       0.28646   0.10474   0.90436 -0.6173500000
O          O       0.27778   0.75864  -0.00017 -0.9995300000
O          O       0.21551   0.66274   0.09922 -0.5980900000
O          O       0.79339   0.81973   0.07912 -0.5901800000
O          O       0.79590   0.67302   0.92841 -0.6031000000
O          O       0.78204   0.65017   0.09980 -0.6051600000
O          O       0.21557   0.84561   0.90115 -0.5957700000
O          O       0.20213   0.83006   0.07431 -0.6114800000
O          O       0.20461   0.67631   0.92442 -0.6064900000
O          O       0.78451   0.84104   0.90440 -0.6169500000
O          O       0.77734   0.49549  -0.00043 -1.0008300000
O          O       0.71550   0.90533   0.09974 -0.5788900000
O          O       0.29568   0.58837   0.07882 -0.6131100000
O          O       0.29553   0.93485   0.92531 -0.6005900000
O          O       0.28242   0.91194   0.09958 -0.6054600000
O          O       0.71570   0.58959   0.90030 -0.6040900000
O          O       0.70202   0.56477   0.07186 -0.6046600000
O          O       0.70243   0.91591   0.92547 -0.6222300000
O          O       0.28642   0.59903   0.90448 -0.5908600000
O          O       0.27839   0.25886   0.00368 -0.9994500000
O          O       0.77802   0.99530   0.00097 -0.9980500000
O          O       0.22199   0.00601  -0.00061 -1.0004000000
O          O       0.72050   0.74433   0.00070 -0.9987900000
O          O       0.22215   0.50584  -0.00006 -0.9982100000
