data_crystal

_audit_creation_method 'AiiDA-DDEC plugin'

_cell_length_a        31.80931
_cell_length_b         6.64979
_cell_length_c        17.13502

_cell_angle_alpha     89.88063
_cell_angle_beta      89.97418
_cell_angle_gamma     89.45057

_symmetry_space_group_name_Hall 'P 1'
_symmetry_space_group_name_H-M  'P 1'

loop_
_symmetry_equiv_pos_as_xyz
 'x,y,z'

loop_
_atom_site_label
_atom_site_type_symbol
_atom_site_fract_x
_atom_site_fract_y
_atom_site_fract_z
_atom_site_charge
Al         Al      0.24919   0.24854  -0.00063   1.67628
Al         Al      0.24937   0.74760   0.99532   1.67846
Al         Al      0.74853   0.25405   0.00083   1.67649
Al         Al      0.75012   0.75326   0.99708   1.67524
H          H       0.30038   0.99329   0.03125   0.43243
H          H       0.04165   0.96117   0.79742   0.12807
H          H       0.03371   0.00052   0.49944   0.26957
H          H       0.16029   0.00556   0.57872   0.13585
H          H       0.04125   0.04449   0.20262   0.12709
H          H       0.16058   0.99284   0.42157   0.13504
H          H       0.13606   0.28052   0.32560   0.11599
H          H       0.18743   0.28130   0.21559   0.12003
H          H       0.08865   0.29254   0.75076   0.11810
H          H       0.14312   0.29835   0.85596   0.12437
H          H       0.13537   0.71543   0.67518   0.11485
H          H       0.18744   0.71483   0.78441   0.12554
H          H       0.08837   0.71297   0.24664   0.11869
H          H       0.14142   0.70852   0.13948   0.11766
H          H       0.69859  -0.00215   0.03377   0.43039
H          H       0.95704   0.96289   0.79791   0.12758
H          H       0.96467   0.00169   0.50079   0.27022
H          H       0.83789   0.00967   0.57907   0.13603
H          H       0.90901   0.29628   0.75199   0.11998
H          H       0.85468   0.30399   0.85740   0.12437
H          H       0.95678   0.04494   0.20302   0.12684
H          H       0.83795  -0.00416   0.42204   0.13453
H          H       0.86205   0.28465   0.32549   0.11559
H          H       0.81056   0.28538   0.21563   0.12019
H          H       0.91073   0.71291   0.24804   0.12042
H          H       0.85734   0.70804   0.14162   0.11708
H          H       0.86336   0.72142   0.67625   0.11705
H          H       0.81166   0.72207   0.78602   0.12498
H          H       0.19854   0.50257   0.03292   0.43369
H          H       0.79953   0.49843   0.03732   0.43217
H          H       0.45758   0.53190   0.79748   0.12722
H          H       0.46507   0.49620   0.49874   0.27070
H          H       0.33890   0.47423   0.58020   0.13571
H          H       0.36422   0.77482   0.67353   0.11667
H          H       0.31191   0.78020   0.78243   0.12548
H          H       0.54205   0.54379   0.79754   0.12835
H          H       0.53401   0.51046   0.50127   0.26977
H          H       0.66116   0.51767   0.57684   0.13595
H          H       0.59036   0.22349   0.75314   0.11792
H          H       0.64405   0.22184   0.85963   0.12526
H          H       0.54144   0.47026   0.20250   0.12717
H          H       0.66018   0.53289   0.41983   0.13534
H          H       0.58745   0.80124   0.24428   0.12115
H          H       0.64041   0.79765   0.13699   0.11749
H          H       0.45700   0.46066   0.20239   0.12701
H          H       0.33787   0.49042   0.42325   0.13534
H          H       0.36231   0.21419   0.32688   0.11602
H          H       0.31064   0.21198   0.21762   0.12032
H          H       0.63588   0.23390   0.32765   0.11628
H          H       0.68753   0.22663   0.21799   0.12050
H          H       0.40910   0.78288   0.24601   0.12058
H          H       0.35623   0.78356   0.13879   0.11733
H          H       0.41066   0.20089   0.75392   0.11979
H          H       0.35636   0.20148   0.85965   0.12455
H          H       0.63605   0.79543   0.67338   0.11406
H          H       0.68812   0.79739   0.78237   0.12496
C          C       0.03340   0.00033   0.66677   0.18918
C          C       0.02063   0.97893   0.74817  -0.18923
C          C       0.09049   0.00196   0.56593   0.17920
C          C       0.13340   0.00214   0.54011  -0.18509
C          C       0.07599   0.00227   0.64339  -0.07850
C          C       0.10853   0.00407   0.70586   0.09022
C          C       0.16840   0.00679   0.82633  -0.05386
C          C       0.19911   0.00457   0.89188   0.63631
C          C       0.03355   0.00241   0.33326   0.18752
C          C       0.02048   0.02600   0.25211  -0.18981
C          C       0.09069  -0.00164   0.43369   0.17899
C          C       0.13352  -0.00299   0.45986  -0.18783
C          C       0.07622  -0.00095   0.35621  -0.08127
C          C       0.10860  -0.00302   0.29336   0.09322
C          C       0.13723   0.15553   0.28480  -0.14569
C          C       0.16602   0.15627   0.22334  -0.09637
C          C       0.16761   0.99491   0.17071  -0.05404
C          C       0.19783  -0.00345   0.10413   0.63628
C          C       0.11071   0.16776   0.75754  -0.14323
C          C       0.14088   0.17098   0.81653  -0.09291
C          C       0.13699   0.84250   0.71489  -0.14617
C          C       0.16622   0.84199   0.77553  -0.09359
C          C       0.11038   0.83606   0.24023  -0.14071
C          C       0.13996   0.83357   0.18017  -0.09497
C          C       0.96483   0.00185   0.66718   0.18825
C          C       0.97788   0.97993   0.74842  -0.18699
C          C       0.90774   0.00459   0.56668   0.17895
C          C       0.86489   0.00553   0.54065  -0.18572
C          C       0.92219   0.00540   0.64418  -0.07654
C          C       0.88970   0.00876   0.70687   0.08909
C          C       0.88725   0.17229   0.75872  -0.14481
C          C       0.85716   0.17649   0.81797  -0.09439
C          C       0.83012   0.01310   0.82802  -0.05031
C          C       0.79966   0.01115   0.89400   0.63602
C          C       0.96494   0.00292   0.33361   0.18784
C          C       0.97773   0.02626   0.25232  -0.18940
C          C       0.90781  -0.00004   0.43440   0.17996
C          C       0.86493  -0.00028   0.46041  -0.18719
C          C       0.92232   0.00031   0.35690  -0.08169
C          C       0.88990  -0.00131   0.29414   0.09172
C          C       0.83067  -0.00359   0.17212  -0.05370
C          C       0.80022  -0.00264   0.10605   0.63822
C          C       0.86104   0.15871   0.28515  -0.14447
C          C       0.83215   0.15936   0.22389  -0.09738
C          C       0.88840   0.83672   0.24154  -0.14115
C          C       0.85866   0.83398   0.18184  -0.09434
C          C       0.86157   0.84842   0.71604  -0.14901
C          C       0.83255   0.84854   0.77707  -0.09433
C          C       0.46590   0.49573   0.66678   0.18662
C          C       0.47861   0.51826   0.74808  -0.18583
C          C       0.40863   0.48610   0.56639   0.17878
C          C       0.36564   0.48142   0.54126  -0.18369
C          C       0.42333   0.48811   0.64371  -0.07625
C          C       0.39085   0.48724   0.70643   0.09102
C          C       0.36246   0.64944   0.71421  -0.14790
C          C       0.33315   0.65278   0.77471  -0.09366
C          C       0.33097   0.49086   0.82716  -0.05471
C          C       0.30006   0.49690   0.89243   0.63225
C          C       0.53445   0.50526   0.66681   0.18771
C          C       0.52133   0.52408   0.74812  -0.18974
C          C       0.59124   0.51447   0.56582   0.17920
C          C       0.63393   0.51920   0.53898  -0.18570
C          C       0.57707   0.50971   0.64352  -0.07688
C          C       0.60960   0.50944   0.70600   0.09206
C          C       0.61198   0.34818   0.75924  -0.14462
C          C       0.64177   0.34701   0.81888  -0.08997
C          C       0.66916   0.50962   0.82748  -0.05562
C          C       0.69977   0.51168   0.89323   0.63214
C          C       0.53317   0.50990   0.33309   0.18868
C          C       0.52043   0.48589   0.25186  -0.19046
C          C       0.59046   0.52014   0.43353   0.17993
C          C       0.63343   0.52556   0.45874  -0.18763
C          C       0.57575   0.51759   0.35618  -0.08162
C          C       0.60815   0.51799   0.29331   0.09355
C          C       0.60968   0.67667   0.23898  -0.14380
C          C       0.63923   0.67469   0.17881  -0.09338
C          C       0.66722   0.51167   0.17078  -0.05692
C          C       0.69756   0.50379   0.10446   0.63450
C          C       0.46458   0.50157   0.33304   0.18810
C          C       0.47770   0.48106   0.25180  -0.18898
C          C       0.40780   0.49265   0.43412   0.17951
C          C       0.36512   0.48830   0.46103  -0.18852
C          C       0.42194   0.49779   0.35638  -0.08196
C          C       0.38939   0.49854   0.29390   0.09407
C          C       0.36089   0.33924   0.28593  -0.14659
C          C       0.33197   0.33738   0.22475  -0.09385
C          C       0.33026   0.49737   0.17120  -0.05704
C          C       0.30021   0.49281   0.10442   0.63474
C          C       0.63698   0.35739   0.28600  -0.14563
C          C       0.66589   0.35287   0.22481  -0.09394
C          C       0.38730   0.65881   0.24017  -0.14350
C          C       0.35781   0.65930   0.18001  -0.09194
C          C       0.38866   0.32620   0.75961  -0.14513
C          C       0.35857   0.32647   0.81888  -0.09149
C          C       0.63781   0.66983   0.71404  -0.14581
C          C       0.66700   0.67133   0.77478  -0.09271
N          N      -0.00097   0.01156   0.61829  -0.41479
N          N       0.06585   0.00033   0.49971  -0.25623
N          N      -0.00068   0.99111   0.38208  -0.41445
N          N       0.93252   0.00167   0.50055  -0.25779
N          N       0.50028   0.49038   0.61811  -0.41346
N          N       0.43296   0.49112   0.49973  -0.25790
N          N       0.56612   0.51510   0.50016  -0.25650
N          N       0.49877   0.51668   0.38169  -0.41456
O          O       0.27493  -0.00296   0.00011  -0.99408
O          O       0.20834   0.16905   0.07806  -0.60938
O          O       0.21113   0.17407   0.91791  -0.59501
O          O       0.21009   0.82583   0.07812  -0.61537
O          O       0.29196   0.66011   0.07045  -0.61789
O          O       0.22340   0.49967   0.00006  -0.99426
O          O       0.21029   0.83230   0.91770  -0.59395
O          O       0.28521   0.66922   0.91065  -0.58928
O          O       0.72331   0.00276   0.00060  -0.99271
O          O       0.78975   0.16909   0.07835  -0.61180
O          O       0.71218   0.33011   0.08666  -0.60951
O          O       0.77509   0.50136   0.00346  -0.99379
O          O       0.78542   0.18029   0.91756  -0.59353
O          O       0.70635   0.34624   0.92931  -0.59936
O          O       0.78770   0.82641   0.08200  -0.61521
O          O       0.79094   0.83944   0.92259  -0.59357
O          O       0.28569   0.32092   0.08586  -0.60883
O          O       0.29137   0.33064   0.92588  -0.59862
O          O       0.70599   0.66968   0.07023  -0.61499
O          O       0.71657   0.67959   0.90967  -0.58859
