data_crystal

_audit_creation_method 'AiiDA-DDEC plugin'

_cell_length_a         9.04010
_cell_length_b        10.00129
_cell_length_c         9.37408

_cell_angle_alpha     89.97706
_cell_angle_beta     118.34290
_cell_angle_gamma     90.04047

_symmetry_space_group_name_Hall 'P 1'
_symmetry_space_group_name_H-M  'P 1'

loop_
_symmetry_equiv_pos_as_xyz
 'x,y,z'

loop_
_atom_site_label
_atom_site_type_symbol
_atom_site_fract_x
_atom_site_fract_y
_atom_site_fract_z
_atom_site_charge
Zn         Zn      0.65155   0.49629   0.62476   0.69559
Zn         Zn      0.00013   0.99635   0.00026   0.69511
Zn         Zn      0.65146   0.88410   0.12469   0.69581
Zn         Zn      0.00022   0.38419   0.50033   0.69613
H          H       0.09777   0.13512   0.73977   0.12209
H          H       0.93648   0.74109   0.77262   0.12405
H          H       0.71485   0.24093   0.85252   0.12319
H          H       0.55310   0.63517   0.88497   0.12167
H          H       0.09879   0.24452   0.24079   0.12213
H          H       0.93543   0.63899   0.27128   0.12336
H          H       0.71602   0.13880   0.35403   0.12325
H          H       0.55278   0.74460   0.38457   0.12227
C          C       0.35533   0.41004   0.64793   0.46063
C          C       0.99390   0.18628   0.74294   0.15533
C          C       0.79961   0.23870   0.80094   0.14483
C          C       0.85163   0.73877   0.82410   0.14394
C          C       0.65714   0.68628   0.88189   0.15653
C          C       0.29618   0.91007   0.97700   0.46003
C          C       0.35523   0.97295   0.14710   0.46172
C          C       0.99472   0.19356   0.24388   0.15684
C          C       0.80059   0.14112   0.30222   0.14527
C          C       0.85074   0.64121   0.32293   0.14354
C          C       0.65667   0.69357   0.38130   0.15663
C          C       0.29639   0.47291   0.47778   0.46030
N          N       0.92060   0.29536   0.65670  -0.19401
N          N       0.79465   0.32894   0.69360  -0.19225
N          N       0.72876   0.64741   0.79004  -0.31732
N          N       0.92231   0.14733   0.83483  -0.31658
N          N       0.85670   0.82894   0.93148  -0.19238
N          N       0.73062   0.79530   0.96825  -0.19401
N          N       0.92081   0.08476   0.15726  -0.19457
N          N       0.79497   0.05120   0.19439  -0.19226
N          N       0.72787   0.73245   0.28904  -0.31701
N          N       0.92364   0.23234   0.33621  -0.31829
N          N       0.85616   0.55113   0.43059  -0.19194
N          N       0.73038   0.58466   0.46774  -0.19406
O          O       0.24180   0.36640   0.67989  -0.49711
O          O       0.51138   0.40697   0.74313  -0.50149
O          O       0.14012   0.90695   0.88176  -0.50104
O          O       0.40971   0.86654   0.94512  -0.49728
O          O       0.24203   0.01932   0.17784  -0.49813
O          O       0.51107   0.97333   0.24335  -0.50172
O          O       0.14053   0.47339   0.38155  -0.50119
O          O       0.40968   0.51912   0.44700  -0.49757
