data_crystal

_audit_creation_method 'AiiDA-DDEC plugin'

_cell_length_a        21.63717
_cell_length_b        21.63649
_cell_length_c        10.28805

_cell_angle_alpha     90.00094
_cell_angle_beta     89.99906
_cell_angle_gamma     90.00852

_symmetry_space_group_name_Hall 'P 1'
_symmetry_space_group_name_H-M  'P 1'

loop_
_symmetry_equiv_pos_as_xyz
 'x,y,z'

loop_
_atom_site_label
_atom_site_type_symbol
_atom_site_fract_x
_atom_site_fract_y
_atom_site_fract_z
_atom_site_charge
Al         Al      0.68004  -0.00042   0.00142   1.67411
Al         Al      0.32008  -0.00041   0.00158   1.67641
Al         Al      0.75038   0.92996   0.75129   1.67493
Al         Al      0.24963   0.92999   0.75144   1.67691
Al         Al      0.74970   0.07002   0.25132   1.67433
Al         Al      0.25033   0.07003   0.25150   1.67703
Al         Al      0.17992   0.00043   0.50156   1.67623
Al         Al      0.82005   0.00037   0.50129   1.67516
Al         Al      0.24969   0.57002   0.75075   1.67490
Al         Al      0.18003   0.49977   0.50071   1.67437
Al         Al      0.25030   0.43012   0.25064   1.67413
Al         Al      0.75044   0.57007   0.75147   1.67557
Al         Al      0.67992   0.50040   0.00147   1.67510
Al         Al      0.74952   0.42995   0.25155   1.67515
Al         Al      0.32003   0.50031   0.00065   1.67491
Al         Al      0.82001   0.49956   0.50151   1.67518
H          H       0.72037   0.49736   0.58576   0.41874
H          H       0.74744   0.52970   0.33588   0.41923
H          H       0.24714   0.02977   0.83657   0.41947
H          H       0.28000   0.49842   0.58337   0.41841
H          H       0.25124   0.53032   0.33238   0.41913
H          H       0.75236   0.47026   0.83543   0.41928
H          H       0.77974   0.50213   0.08524   0.41940
H          H       0.24794   0.47009   0.83379   0.41873
H          H       0.74817   0.97013   0.33459   0.41877
H          H       0.78003  -0.00140   0.08408   0.41836
H          H       0.75173   0.02986   0.83445   0.41907
H          H       0.72015   0.00178   0.58445   0.41885
H          H       0.22041   0.99631   0.08687   0.41992
H          H       0.27963   0.00327   0.58638   0.42012
H          H       0.25291   0.97024   0.33663   0.41913
H          H       0.22005   0.50173   0.08279   0.41903
H          H       0.59942   0.91623   0.52625   0.11802
H          H       0.40000   0.91621   0.52664   0.11805
H          H       0.49975   0.98171   0.86094   0.13714
H          H       0.49969   0.89839   0.40936   0.11597
H          H       0.60003   0.08510   0.47141   0.11906
H          H       0.40044   0.08530   0.47153   0.11824
H          H       0.50014   0.01975   0.13718   0.13586
H          H       0.50026   0.10263   0.58901   0.11508
H          H       0.09965   0.91523   0.97192   0.11894
H          H       0.90006   0.91502   0.97168   0.11916
H          H      -0.00016   0.98055   0.63755   0.13581
H          H      -0.00014   0.89782   0.08944   0.11506
H          H       0.10005   0.08419   0.02682   0.11834
H          H       0.90063   0.08430   0.02605   0.11777
H          H       0.00009   0.01776   0.36003   0.13693
H          H       0.00043   0.10230   0.90953   0.11596
H          H       0.16604   0.85011   0.27686   0.11789
H          H       0.16587   0.65068   0.27603   0.11779
H          H       0.23198   0.75015   0.61040   0.13687
H          H       0.14802   0.75049   0.15939   0.11569
H          H       0.16499   0.15046   0.72161   0.11892
H          H       0.16498   0.35006   0.72134   0.11908
H          H       0.23048   0.25016   0.38722   0.13571
H          H       0.14764   0.25030   0.83911   0.11530
H          H       0.66517   0.84985   0.22163   0.11908
H          H       0.66507   0.65028   0.22178   0.11889
H          H       0.73028   0.75001   0.88718   0.13562
H          H       0.64778   0.75009   0.33931   0.11503
H          H       0.66583   0.15038   0.77622   0.11780
H          H       0.66571   0.34981   0.77677   0.11831
H          H       0.73216   0.25000   0.11014   0.13700
H          H       0.64771   0.25014   0.65957   0.11605
H          H       0.33482   0.84968   0.22147   0.11905
H          H       0.33506   0.65009   0.22134   0.11939
H          H       0.26952   0.74982   0.88710   0.13579
H          H       0.35224   0.74991   0.33911   0.11537
H          H       0.33441   0.14993   0.77702   0.11817
H          H       0.33412   0.34939   0.77590   0.11790
H          H       0.26782   0.24992   0.11010   0.13679
H          H       0.35232   0.24955   0.65952   0.11584
H          H       0.83420   0.84948   0.27621   0.11794
H          H       0.83439   0.65000   0.27705   0.11827
H          H       0.76789   0.74992   0.61023   0.13701
H          H       0.85237   0.74967   0.15970   0.11580
H          H       0.83521   0.15015   0.72157   0.11920
H          H       0.83479   0.34973   0.72173   0.11941
H          H       0.76934   0.24980   0.38755   0.13595
H          H       0.85230   0.24998   0.83937   0.11543
H          H       0.09938   0.41605   0.02598   0.11777
H          H       0.89994   0.41619   0.02660   0.11782
H          H      -0.00010   0.48194   0.36048   0.13729
H          H      -0.00043   0.39828   0.90918   0.11557
H          H       0.10002   0.58485   0.97144   0.11904
H          H       0.90045   0.58544   0.97121   0.11849
H          H       0.00015   0.51953   0.63720   0.13548
H          H       0.00026   0.60256   0.08895   0.11530
H          H       0.59954   0.41487   0.47158   0.11896
H          H       0.39995   0.41500   0.47132   0.11898
H          H       0.49985   0.48067   0.13742   0.13577
H          H       0.49970   0.39755   0.58904   0.11548
H          H       0.59998   0.58397   0.52643   0.11775
H          H       0.40055   0.58425   0.52602   0.11824
H          H       0.50009   0.51769   0.85985   0.13682
H          H       0.50033   0.60208   0.40920   0.11582
C          C       0.55548   0.92638   0.57284  -0.07429
C          C       0.55582   0.95014   0.69997  -0.05989
C          C       0.61578   0.95835   0.76944   0.62874
C          C       0.49989   0.96333   0.76256  -0.08861
C          C       0.49974   0.91566   0.50862  -0.09358
C          C       0.44404   0.92635   0.57291  -0.07507
C          C       0.44396   0.95014   0.69997  -0.05817
C          C       0.38411   0.95836   0.76956   0.62833
C          C       0.55595   0.07506   0.42517  -0.07408
C          C       0.55604   0.05146   0.29795  -0.05981
C          C       0.61580   0.04333   0.22824   0.63082
C          C       0.50012   0.03821   0.23548  -0.08831
C          C       0.50022   0.08563   0.48954  -0.09541
C          C       0.44446   0.07517   0.42516  -0.07286
C          C       0.44422   0.05154   0.29796  -0.06152
C          C       0.38439   0.04338   0.22834   0.63142
C          C       0.05562   0.92526   0.92553  -0.07420
C          C       0.05582   0.94877   0.79824  -0.06095
C          C       0.11564   0.95675   0.72847   0.63186
C          C      -0.00009   0.96207   0.73581  -0.08742
C          C      -0.00013   0.91480   0.98995  -0.09546
C          C       0.94412   0.92521   0.92550  -0.07332
C          C       0.94400   0.94878   0.79827  -0.06174
C          C       0.88425   0.95675   0.72835   0.63146
C          C       0.05600   0.07389   0.07287  -0.07462
C          C       0.05606   0.04979   0.19970  -0.05808
C          C       0.11588   0.04160   0.26945   0.62800
C          C       0.00008   0.03645   0.26193  -0.08993
C          C       0.00032   0.08475   0.00859  -0.09376
C          C       0.94454   0.07394   0.07260  -0.07396
C          C       0.94417   0.04986   0.19948  -0.05805
C          C       0.88424   0.04164   0.26909   0.62712
C          C       0.17623   0.80605   0.32292  -0.07533
C          C       0.20018   0.80613   0.44985  -0.05768
C          C       0.20838   0.86595   0.51957   0.62857
C          C       0.21344   0.75016   0.51217  -0.08901
C          C       0.16544   0.75038   0.25855  -0.09301
C          C       0.17617   0.69460   0.32260  -0.07400
C          C       0.20010   0.69425   0.44958  -0.05949
C          C       0.20831   0.63429   0.51900   0.62871
C          C       0.17510   0.19448   0.67522  -0.07405
C          C       0.19868   0.19424   0.54798  -0.06107
C          C       0.20669   0.13440   0.47830   0.63226
C          C       0.21198   0.25016   0.48548  -0.08840
C          C       0.16462   0.25025   0.73960  -0.09564
C          C       0.17511   0.30599   0.67515  -0.07475
C          C       0.19871   0.30609   0.54791  -0.05860
C          C       0.20675   0.36586   0.47801   0.63016
C          C       0.67519   0.80579   0.17534  -0.07358
C          C       0.69870   0.80593   0.04805  -0.06118
C          C       0.70672   0.86571   0.97829   0.63215
C          C       0.71191   0.75002   0.98554  -0.08741
C          C       0.66471   0.75006   0.23979  -0.09529
C          C       0.67514   0.69431   0.17539  -0.07401
C          C       0.69865   0.69412   0.04811  -0.06182
C          C       0.70668   0.63433   0.97842   0.63240
C          C       0.67611   0.19434   0.82269  -0.07387
C          C       0.70017   0.19408   0.94956  -0.05819
C          C       0.70840   0.13417   0.01919   0.62748
C          C       0.71352   0.25001   0.01201  -0.09012
C          C       0.66524   0.25009   0.75864  -0.09455
C          C       0.67604   0.30580   0.82292  -0.07407
C          C       0.70013   0.30598   0.94975  -0.05836
C          C       0.70835   0.36585   0.01943   0.62801
C          C       0.32479   0.80561   0.17519  -0.07467
C          C       0.30129   0.80579   0.04791  -0.06049
C          C       0.29331   0.86562   0.97827   0.63184
C          C       0.28799   0.74989   0.98540  -0.08811
C          C       0.33530   0.74988   0.23960  -0.09549
C          C       0.32490   0.69413   0.17511  -0.07480
C          C       0.30130   0.69398   0.04788  -0.05978
C          C       0.29329   0.63421   0.97804   0.63081
C          C       0.32400   0.19399   0.82294  -0.07464
C          C       0.29987   0.19392   0.94973  -0.05869
C          C       0.29162   0.13408   0.01945   0.62876
C          C       0.28650   0.24990   0.01197  -0.08926
C          C       0.33479   0.24967   0.75859  -0.09376
C          C       0.32391   0.30546   0.82253  -0.07403
C          C       0.29987   0.30581   0.94943  -0.05880
C          C       0.29164   0.36576   0.01890   0.62804
C          C       0.82396   0.80553   0.32275  -0.07381
C          C       0.79992   0.80586   0.44964  -0.05867
C          C       0.79164   0.86579   0.51917   0.62767
C          C       0.78656   0.74994   0.51211  -0.08978
C          C       0.83483   0.74976   0.25875  -0.09395
C          C       0.82401   0.69406   0.32302  -0.07381
C          C       0.79989   0.69397   0.44982  -0.05903
C          C       0.79163   0.63412   0.51949   0.62899
C          C       0.82494   0.19418   0.67540  -0.07314
C          C       0.80129   0.19403   0.54822  -0.06259
C          C       0.79331   0.13426   0.47837   0.63223
C          C       0.78790   0.24992   0.48576  -0.08767
C          C       0.83532   0.24994   0.73987  -0.09544
C          C       0.82475   0.30567   0.67545  -0.07505
C          C       0.80120   0.30584   0.54819  -0.06029
C          C       0.79324   0.36565   0.47842   0.63166
C          C       0.05544   0.42631   0.07251  -0.07408
C          C       0.05579   0.45017   0.19956  -0.05893
C          C       0.11575   0.45837   0.26904   0.62787
C          C      -0.00011   0.46345   0.26219  -0.08973
C          C      -0.00033   0.41561   0.00840  -0.09309
C          C       0.94399   0.42635   0.07280  -0.07476
C          C       0.94391   0.45021   0.19982  -0.05810
C          C       0.88406   0.45839   0.26950   0.62839
C          C       0.05595   0.57487   0.92514  -0.07447
C          C       0.05605   0.55129   0.79790  -0.05941
C          C       0.11582   0.54326   0.72805   0.63050
C          C       0.00012   0.53807   0.73542  -0.08762
C          C       0.00023   0.58555   0.98947  -0.09571
C          C       0.94447   0.57518   0.92500  -0.07295
C          C       0.94423   0.55148   0.79786  -0.06170
C          C       0.88437   0.54335   0.72832   0.63168
C          C       0.55551   0.42505   0.42527  -0.07370
C          C       0.55575   0.44869   0.29808  -0.06089
C          C       0.61558   0.45669   0.22841   0.63153
C          C       0.49986   0.46209   0.23562  -0.08801
C          C       0.49974   0.41458   0.48960  -0.09591
C          C       0.44402   0.42512   0.42515  -0.07438
C          C       0.44393   0.44879   0.29800  -0.05956
C          C       0.38419   0.45678   0.22807   0.63087
C          C       0.55594   0.57371   0.57257  -0.07405
C          C       0.55604   0.54970   0.69947  -0.05781
C          C       0.61587   0.54157   0.76933   0.62753
C          C       0.50006   0.53636   0.76174  -0.08994
C          C       0.50026   0.58459   0.50831  -0.09381
C          C       0.44449   0.57385   0.57243  -0.07441
C          C       0.44415   0.54979   0.69930  -0.05881
C          C       0.38420   0.54162   0.76884   0.62913
O          O       0.74411   0.99130   0.88020  -1.00829
O          O       0.61582   0.99071   0.87332  -0.58835
O          O       0.66253   0.93120   0.71862  -0.61619
O          O       0.38411   0.99072   0.87343  -0.58911
O          O       0.33738   0.93119   0.71874  -0.61570
O          O       0.74148   0.00589   0.13014  -1.00761
O          O       0.61599   0.00950   0.12612  -0.58506
O          O       0.68120   0.08741   0.96851  -0.61548
O          O       0.67825   0.91211   0.02592  -0.59385
O          O       0.66222   0.07177   0.27580  -0.59359
O          O       0.38422   0.00958   0.12614  -0.58530
O          O       0.33793   0.07174   0.27598  -0.59371
O          O       0.24100   0.99407   0.63050  -1.01034
O          O       0.11583   0.99047   0.62618  -0.58570
O          O       0.16205   0.92829   0.77604  -0.59403
O          O       0.88408   0.99049   0.62608  -0.58502
O          O       0.83786   0.92821   0.77583  -0.59364
O          O       0.24411   0.00896   0.38075  -1.00941
O          O       0.11587   0.00929   0.37341  -0.58898
O          O       0.17824   0.08798   0.52600  -0.59439
O          O       0.18119   0.91268   0.46880  -0.61560
O          O       0.16261   0.06879   0.21866  -0.61541
O          O       0.88418   0.00925   0.37294  -0.58818
O          O       0.83748   0.06884   0.21847  -0.61512
O          O       0.24072   0.86589   0.62346  -0.58893
O          O       0.24076   0.63418   0.62274  -0.58884
O          O       0.18109   0.58755   0.46834  -0.61565
O          O       0.25591   0.99104   0.88067  -1.00989
O          O       0.25954   0.86585   0.87608  -0.58559
O          O       0.24044   0.13415   0.37607  -0.58566
O          O       0.24048   0.36604   0.37577  -0.58461
O          O       0.17827   0.41228   0.52557  -0.59394
O          O       0.25901   0.00591   0.13065  -1.01017
O          O       0.25926   0.13411   0.12330  -0.58872
O          O       0.74047   0.86593   0.87605  -0.58524
O          O       0.74047   0.63413   0.87625  -0.58527
O          O       0.67818   0.58793   0.02603  -0.59410
O          O       0.75871   0.99411   0.63015  -1.00830
O          O       0.75924   0.86583   0.62299  -0.58824
O          O       0.74076   0.13415   0.12306  -0.58840
O          O       0.74072   0.36586   0.12330  -0.58856
O          O       0.68117   0.41260   0.96869  -0.61558
O          O       0.75592   0.00869   0.38026  -1.00801
O          O       0.75956   0.13407   0.37612  -0.58530
O          O       0.32178   0.91203   0.02596  -0.59443
O          O       0.25955   0.63404   0.87580  -0.58496
O          O       0.32178   0.58780   0.02560  -0.59391
O          O       0.31883   0.08734   0.96875  -0.61585
O          O       0.25921   0.36585   0.12265  -0.58851
O          O       0.31887   0.41251   0.96826  -0.61563
O          O       0.81884   0.91256   0.46850  -0.61552
O          O       0.75929   0.63414   0.62340  -0.58920
O          O       0.81878   0.58736   0.46873  -0.61591
O          O       0.82181   0.08786   0.52590  -0.59390
O          O       0.75953   0.36588   0.37613  -0.58565
O          O       0.82175   0.41204   0.52605  -0.59350
O          O       0.24396   0.49184   0.37871  -1.00788
O          O       0.11582   0.49078   0.37285  -0.58844
O          O       0.16249   0.43115   0.21837  -0.61533
O          O       0.88409   0.49072   0.37342  -0.58877
O          O       0.83733   0.43121   0.21873  -0.61563
O          O       0.24146   0.50598   0.62927  -1.00758
O          O       0.11599   0.50952   0.62580  -0.58481
O          O       0.16222   0.57175   0.77560  -0.59396
O          O       0.88412   0.50956   0.62614  -0.58515
O          O       0.83796   0.57176   0.77608  -0.59382
O          O       0.74115   0.49408   0.13054  -1.00902
O          O       0.61585   0.49046   0.12620  -0.58520
O          O       0.66198   0.42822   0.27604  -0.59409
O          O       0.38403   0.49049   0.12577  -0.58497
O          O       0.33778   0.42827   0.27560  -0.59382
O          O       0.74408   0.50887   0.88052  -1.00904
O          O       0.61581   0.50928   0.87332  -0.58872
O          O       0.66261   0.56881   0.71870  -0.61515
O          O       0.38414   0.50920   0.87264  -0.58912
O          O       0.33747   0.56887   0.71830  -0.61534
O          O       0.75579   0.49108   0.38078  -1.00862
O          O       0.75895   0.50585   0.63073  -1.00855
O          O       0.25849   0.49405   0.12895  -1.00823
O          O       0.25593   0.50863   0.87933  -1.00789
