data_crystal

_audit_creation_method 'AiiDA-DDEC plugin'

_cell_length_a        17.32735
_cell_length_b        17.38459
_cell_length_c        23.91653

_cell_angle_alpha     90.12471
_cell_angle_beta     90.11638
_cell_angle_gamma     90.16811

_symmetry_space_group_name_Hall 'P 1'
_symmetry_space_group_name_H-M  'P 1'

loop_
_symmetry_equiv_pos_as_xyz
 'x,y,z'

loop_
_atom_site_label
_atom_site_type_symbol
_atom_site_fract_x
_atom_site_fract_y
_atom_site_fract_z
_atom_site_charge
Al         Al      0.81966   0.82457   0.49799   1.68022
Al         Al      0.17527   0.17794   0.50230   1.66635
Al         Al      0.17966   0.82022   0.50255   1.66898
Al         Al      0.82061   0.17966   0.49712   1.67302
Al         Al      0.32158   0.32475   0.00131   1.67088
Al         Al      0.67717   0.67596  -0.00137   1.66971
Al         Al      0.67867   0.31981   0.00147   1.67183
Al         Al      0.31748   0.67993  -0.00082   1.67008
Al         Al      0.74257   0.00243   0.49574   1.68411
Al         Al      0.25106  -0.00016   0.50412   1.67755
Al         Al     -0.00160   0.74958   0.49968   1.67913
Al         Al     -0.00119   0.25637   0.49718   1.67080
Al         Al      0.24352   0.50137   0.99820   1.67471
Al         Al      0.75472   0.49847   0.00015   1.67612
Al         Al      0.49913   0.24606  -0.00010   1.67691
Al         Al      0.49842   0.75068   0.99755   1.67524
H          H       0.81801   0.80327   0.77349   0.11305
H          H       0.17973   0.20085   0.78029   0.11018
H          H       0.20235   0.81679   0.77706   0.11424
H          H       0.80560   0.16916   0.77369   0.11166
H          H       0.18884   0.79808   0.22499   0.11422
H          H       0.81481   0.20328   0.21867   0.11306
H          H       0.79581   0.81760   0.22224   0.11344
H          H       0.21098   0.18931   0.22208   0.11249
H          H       0.31828   0.30294   0.27629   0.11279
H          H       0.68284   0.70606   0.27627   0.11268
H          H       0.69933   0.31434   0.27946   0.11355
H          H       0.29814   0.67803   0.27482   0.11280
H          H       0.70127   0.28999   0.72305   0.11221
H          H       0.30866   0.70779   0.72304   0.11384
H          H       0.29332   0.31058   0.72325   0.11344
H          H       0.70799   0.69170   0.72296   0.11252
H          H       0.82762   0.80476   0.66827   0.12309
H          H       0.16591   0.19976   0.67512   0.12544
H          H       0.20143   0.82523   0.67159   0.12782
H          H       0.80321   0.16485   0.66823   0.11961
H          H       0.17816   0.79698   0.33021   0.12284
H          H       0.82597   0.20409   0.32388   0.12087
H          H       0.79781   0.82971   0.32751   0.12376
H          H       0.20813   0.17597   0.32699   0.12195
H          H       0.32973   0.30594   0.17133   0.12169
H          H       0.67287   0.70330   0.17093   0.12206
H          H       0.69833   0.32751   0.17434   0.12150
H          H       0.29976   0.66995   0.16939   0.12042
H          H       0.69013   0.28786   0.82825   0.12722
H          H       0.31652   0.70722   0.82852   0.12728
H          H       0.29149   0.32044   0.82855   0.12108
H          H       0.70469   0.67714   0.82804   0.12637
H          H       0.70932   0.02125   0.66451   0.12294
H          H       0.30103   0.99371   0.66689   0.12605
H          H       0.97903   0.71613   0.66788   0.12283
H          H       0.01133   0.29887   0.66336   0.12582
H          H       0.30239   0.01058   0.33825   0.12311
H          H       0.70298   0.98998   0.33085   0.12550
H          H       0.00631   0.69723   0.33329   0.12316
H          H       0.98850   0.28906   0.33104   0.12350
H          H       0.20759   0.52017   0.16763   0.12230
H          H       0.78963   0.48616   0.16806   0.12352
H          H       0.48326   0.20507   0.16700   0.12379
H          H       0.51487   0.79258   0.16674   0.12305
H          H       0.79132   0.51311   0.83621   0.12581
H          H       0.20780   0.48525   0.83125   0.12308
H          H       0.51219   0.20972   0.83588   0.12575
H          H       0.48902   0.79742   0.83301   0.12592
H          H       0.70009   0.02023   0.76916   0.11056
H          H       0.31472   0.99412   0.77123   0.10966
H          H       0.98030   0.70618   0.77230   0.10946
H          H       0.01374   0.30415   0.76813   0.11046
H          H       0.31479   0.01101   0.23393   0.10997
H          H       0.69096   0.98904   0.22648   0.10969
H          H       0.00389   0.68415   0.22900   0.11092
H          H       0.99060   0.30200   0.22697   0.10984
H          H       0.19588   0.51757   0.27187   0.11003
H          H       0.80040   0.48878   0.27237   0.11020
H          H       0.48382   0.19182   0.27133   0.10985
H          H       0.51315   0.80175   0.27136   0.10991
H          H       0.80363   0.51513   0.73214   0.10866
H          H       0.19865   0.48599   0.72676   0.10994
H          H       0.51371   0.19840   0.73155   0.10904
H          H       0.49235   0.81303   0.72894   0.10979
H          H       0.52255   0.92957   0.45497   0.11475
H          H       0.46740   0.06349   0.45511   0.11608
H          H       0.06472   0.52671   0.45652   0.11496
H          H       0.93044   0.47428   0.45372   0.11642
H          H       0.46967   0.93793   0.54702   0.11452
H          H       0.52600   0.07013   0.54257   0.11451
H          H       0.93201   0.53377   0.54254   0.11489
H          H       0.06305   0.47102   0.54725   0.11454
H          H       0.02398   0.42847   0.95246   0.11620
H          H       0.97356   0.56812   0.95328   0.11560
H          H       0.55845   0.03599   0.94101   0.11411
H          H       0.43868   0.96571   0.95111   0.11496
H          H       0.97274   0.43325   0.04507   0.11651
H          H       0.02530   0.56614   0.04306   0.11503
H          H       0.42641   0.02810   0.03885   0.11669
H          H       0.56893   0.97209   0.03652   0.11656
H          H       0.40641   0.87918   0.40402   0.11836
H          H       0.58468   0.10950   0.40393   0.12140
H          H       0.11265   0.41153   0.40417   0.12139
H          H       0.88189   0.59215   0.40510   0.11995
H          H       0.58953   0.89445   0.59640   0.12103
H          H       0.41026   0.11650   0.59505   0.12058
H          H       0.88956   0.41563   0.59374   0.12055
H          H       0.11075   0.58744   0.59842   0.12060
H          H       0.91065   0.37621   0.89964   0.11849
H          H       0.08878   0.61925   0.90255   0.12059
H          H       0.60560   0.92219   0.88649   0.11810
H          H       0.39503   0.08468   0.90089   0.12056
H          H       0.09215   0.38795   0.09394   0.12093
H          H       0.90700   0.61079   0.09349   0.12081
H          H       0.38144   0.91109   0.09043   0.12087
H          H       0.61506   0.08946   0.08765   0.12083
H          H       0.53925   0.68324   0.34996   0.10987
H          H       0.45842   0.31037   0.35119   0.11057
H          H       0.31154   0.54248   0.35153   0.10977
H          H       0.68249   0.46397   0.34936   0.11078
H          H       0.46823   0.69117   0.65138   0.11116
H          H       0.54300   0.31076   0.65428   0.11133
H          H       0.69157   0.53956   0.65504   0.10998
H          H       0.31580   0.46266   0.64558   0.11216
H          H       0.04744   0.18102   0.84959   0.11054
H          H       0.95656   0.81791   0.85345   0.11125
H          H       0.82323   0.03834   0.86151   0.11434
H          H       0.18563   0.96672   0.85303   0.11197
H          H       0.96853   0.18660   0.14953   0.11062
H          H       0.03460   0.80774   0.15403   0.11120
H          H       0.19755   0.04464   0.16302   0.10764
H          H       0.80780   0.95966   0.15152   0.10937
H          H       0.65051   0.72820   0.40865   0.13336
H          H       0.34641   0.26969   0.41012   0.13382
H          H       0.26904   0.65235   0.41133   0.13489
H          H       0.72579   0.35060   0.40566   0.13173
H          H       0.35327   0.72963   0.59432   0.13332
H          H       0.65379   0.27011   0.59425   0.13190
H          H       0.72874   0.65285   0.59666   0.13075
H          H       0.27190   0.35074   0.58789   0.13376
H          H       0.15587   0.22772   0.91011   0.13301
H          H       0.84606   0.77176   0.91133   0.13469
H          H       0.77834   0.14699   0.92149   0.13617
H          H       0.22465   0.85334   0.91094   0.13441
H          H       0.85318   0.22736   0.09383   0.13234
H          H       0.14836   0.76815   0.09639   0.13307
H          H       0.23576   0.15724   0.10401   0.12898
H          H       0.76688   0.84642   0.09390   0.13206
H          H       0.85361   0.94393   0.44941   0.43009
H          H       0.16285   0.06668   0.44390   0.41139
H          H       0.06988   0.83635   0.44150   0.41583
H          H       0.93218   0.16377   0.43931   0.41536
H          H       0.12535   0.94506   0.52203   0.42670
H          H       0.84262   0.06480   0.55014   0.42164
H          H       0.93466   0.84953   0.55077   0.42041
H          H       0.04611   0.13094   0.52024   0.42662
H          H       0.33778   0.43565   0.94262   0.42033
H          H       0.62945   0.54831   0.97392   0.42615
H          H       0.55261   0.36919   0.97507   0.42709
H          H       0.44125   0.62606   0.97523   0.42796
H          H       0.66200   0.43177   0.05736   0.41317
H          H       0.33775   0.56743   0.05495   0.41649
H          H       0.43658   0.34347   0.05554   0.41369
H          H       0.56528   0.66027   0.05592   0.41208
C          C       0.39783   0.75124   0.34069   0.34437
C          C       0.59823   0.23899   0.34276   0.34519
C          C       0.24211   0.40175   0.34193   0.34270
C          C       0.75399   0.60445   0.34216   0.34109
C          C       0.60645   0.76558   0.65832   0.34249
C          C       0.39939   0.24295   0.65921   0.34316
C          C       0.76524   0.39876   0.65922   0.34266
C          C       0.24322   0.60215   0.65674   0.34469
C          C       0.90420   0.24528   0.83907   0.34420
C          C       0.09830   0.74931   0.84242   0.34430
C          C       0.74633   0.90470   0.83894   0.34681
C          C       0.26163   0.10280   0.84333   0.34645
C          C       0.10811   0.26152   0.15697   0.34225
C          C       0.89371   0.73865   0.15793   0.34225
C          C       0.26233   0.90024   0.16127   0.34174
C          C       0.73938   0.10171   0.15472   0.34195
C          C       0.75852   0.91136   0.77751  -0.01650
C          C       0.24780   0.09768   0.78199  -0.01840
C          C       0.09157   0.76135   0.78093  -0.01580
C          C       0.90958   0.23665   0.77721  -0.01375
C          C       0.25119   0.90500   0.22307  -0.01070
C          C       0.75287   0.09608   0.21623  -0.01195
C          C       0.90006   0.75117   0.21942  -0.01325
C          C       0.10098   0.24577   0.21808  -0.01364
C          C       0.25629   0.40972   0.28056  -0.01170
C          C       0.74152   0.59755   0.28064  -0.01330
C          C       0.59166   0.25304   0.28154  -0.01297
C          C       0.40552   0.73972   0.27923  -0.01484
C          C       0.75238   0.40258   0.72095  -0.01330
C          C       0.25362   0.59705   0.71855  -0.01702
C          C       0.40367   0.25467   0.72096  -0.01301
C          C       0.60033   0.75252   0.71968  -0.01574
C          C       0.79541   0.85087   0.74904  -0.09640
C          C       0.20556   0.15576   0.75489  -0.09698
C          C       0.15380   0.79564   0.75249  -0.09747
C          C       0.85044   0.19668   0.74893  -0.09791
C          C       0.21262   0.84448   0.25036  -0.09925
C          C       0.79144   0.15664   0.24380  -0.09844
C          C       0.84181   0.79243   0.24719  -0.09919
C          C       0.16217   0.20973   0.24650  -0.09921
C          C       0.29503   0.35044   0.25202  -0.09836
C          C       0.70497   0.65798   0.25197  -0.09669
C          C       0.65210   0.29178   0.25419  -0.09995
C          C       0.34547   0.70187   0.25050  -0.09800
C          C       0.72001   0.33860   0.74843  -0.09750
C          C       0.28738   0.65938   0.74735  -0.09645
C          C       0.34108   0.28958   0.74850  -0.09788
C          C       0.66037   0.71408   0.74767  -0.09754
C          C       0.80083   0.85174   0.69110  -0.08211
C          C       0.19821   0.15544   0.69696  -0.08624
C          C       0.15336   0.80030   0.69450  -0.08422
C          C       0.84918   0.19414   0.69089  -0.08618
C          C       0.20651   0.84393   0.30832  -0.08458
C          C       0.79771   0.15709   0.30177  -0.08829
C          C       0.84289   0.79911   0.30512  -0.08411
C          C       0.16056   0.20231   0.30442  -0.08565
C          C       0.30152   0.35211   0.19410  -0.08282
C          C       0.69925   0.65638   0.19399  -0.08504
C          C       0.65149   0.29905   0.19636  -0.08538
C          C       0.34641   0.69731   0.19255  -0.08557
C          C       0.71385   0.33738   0.80646  -0.08650
C          C       0.29178   0.65915   0.80542  -0.08273
C          C       0.34006   0.29515   0.80652  -0.08769
C          C       0.65860   0.70601   0.80548  -0.08537
C          C       0.76914   0.91312   0.66064  -0.03688
C          C       0.23346   0.09718   0.66533  -0.02761
C          C       0.09024   0.77105   0.66412  -0.03336
C          C       0.90712   0.23164   0.66016  -0.02990
C          C       0.23854   0.90446   0.33986  -0.03749
C          C       0.76543   0.09681   0.33307  -0.03585
C          C       0.90263   0.76481   0.33601  -0.03576
C          C       0.09764   0.23115   0.33491  -0.03410
C          C       0.26919   0.41314   0.16355  -0.04034
C          C       0.73001   0.59420   0.16381  -0.03662
C          C       0.59039   0.26749   0.16505  -0.03446
C          C       0.40776   0.73019   0.16250  -0.03479
C          C       0.73996   0.40052   0.83814  -0.03369
C          C       0.26270   0.59618   0.83561  -0.03580
C          C       0.40195   0.26598   0.83795  -0.03327
C          C       0.59655   0.73633   0.83608  -0.03031
C          C       0.73364   0.97438   0.68884  -0.09567
C          C       0.27473   0.03854   0.69219  -0.09467
C          C       0.02728   0.73830   0.69225  -0.09774
C          C       0.96708   0.27035   0.68805  -0.09309
C          C       0.27713   0.96490   0.31294  -0.09828
C          C       0.72782   0.03581   0.30574  -0.09710
C          C       0.96106   0.72394   0.30852  -0.09828
C          C       0.03621   0.26642   0.30665  -0.09719
C          C       0.23220   0.47336   0.19185  -0.09663
C          C       0.76567   0.53340   0.19223  -0.09757
C          C       0.52955   0.22956   0.19218  -0.09685
C          C       0.46838   0.76696   0.19093  -0.09629
C          C       0.77154   0.46481   0.81096  -0.09548
C          C       0.22996   0.53340   0.80711  -0.09697
C          C       0.46486   0.23182   0.81073  -0.09426
C          C       0.53634   0.77437   0.80839  -0.09777
C          C       0.72862   0.97361   0.74702  -0.11005
C          C       0.28171   0.03867   0.75021  -0.11033
C          C       0.02804   0.73327   0.75037  -0.11059
C          C       0.96826   0.27288   0.74632  -0.11019
C          C       0.28352   0.96513   0.25489  -0.11210
C          C       0.72157   0.03538   0.24768  -0.11140
C          C       0.95976   0.71717   0.25050  -0.11112
C          C       0.03760   0.27339   0.24868  -0.11169
C          C       0.22593   0.47174   0.24996  -0.11021
C          C       0.77133   0.53500   0.25030  -0.11202
C          C       0.53006   0.22251   0.25017  -0.11116
C          C       0.46729   0.77170   0.24909  -0.10991
C          C       0.77772   0.46587   0.75289  -0.11368
C          C       0.22533   0.53385   0.74896  -0.11038
C          C       0.46571   0.22616   0.75264  -0.11242
C          C       0.53823   0.78246   0.75052  -0.11154
C          C       0.77168   0.91203   0.59818   0.62500
C          C       0.22707   0.09665   0.60306   0.63023
C          C       0.09035   0.77416   0.60178   0.62514
C          C       0.90474   0.23051   0.59776   0.63043
C          C       0.23223   0.90492   0.40210   0.62229
C          C       0.76966   0.09699   0.39542   0.62602
C          C       0.90394   0.77104   0.39823   0.62531
C          C       0.09548   0.22674   0.39739   0.62223
C          C       0.27246   0.41265   0.10109   0.62778
C          C       0.72660   0.59316   0.10141   0.62222
C          C       0.59077   0.27240   0.10273   0.62316
C          C       0.40731   0.72726   0.10013   0.62228
C          C       0.73452   0.40069   0.90065   0.62649
C          C       0.26636   0.59553   0.89801   0.62652
C          C       0.40201   0.27031   0.90034   0.62998
C          C       0.59394   0.72883   0.89819   0.62817
C          C       0.52431   0.87480   0.43309  -0.09042
C          C       0.46747   0.11854   0.43369  -0.08867
C          C       0.11964   0.52837   0.43471  -0.08965
C          C       0.87521   0.47390   0.43216  -0.09022
C          C       0.47143   0.88297   0.56854  -0.08815
C          C       0.52782   0.12382   0.56584  -0.08997
C          C       0.87848   0.53320   0.56609  -0.09153
C          C       0.11932   0.47116   0.56740  -0.08820
C          C       0.02735   0.37315   0.93137  -0.08994
C          C       0.97143   0.62363   0.93257  -0.08767
C          C       0.61687   0.03439   0.92459  -0.08761
C          C       0.38254   0.96812   0.93084  -0.09097
C          C       0.97352   0.37841   0.06676  -0.09025
C          C       0.02529   0.62004   0.06611  -0.08732
C          C       0.37511   0.02999   0.06480  -0.09069
C          C       0.62210   0.97113   0.06068  -0.08873
C          C       0.46032   0.84725   0.40406  -0.11238
C          C       0.53203   0.14354   0.40432  -0.11195
C          C       0.14579   0.46484   0.40476  -0.11331
C          C       0.84873   0.53888   0.40437  -0.11096
C          C       0.53742   0.85931   0.59682  -0.11412
C          C       0.46404   0.14903   0.59586  -0.11264
C          C       0.85538   0.46803   0.59535  -0.11118
C          C       0.14545   0.53538   0.59675  -0.11616
C          C       0.96480   0.34467   0.90107  -0.11428
C          C       0.03510   0.65156   0.90354  -0.11354
C          C       0.64289   0.97177   0.89364  -0.12234
C          C       0.35880   0.03343   0.90214  -0.11609
C          C       0.03947   0.35368   0.09462  -0.10914
C          C       0.96006   0.64446   0.09488  -0.11295
C          C       0.35079   0.96542   0.09419  -0.10729
C          C       0.64732   0.03591   0.08977  -0.10965
C          C       0.46624   0.77871   0.37320   0.00195
C          C       0.52851   0.21266   0.37415   0.00240
C          C       0.21467   0.47020   0.37409   0.00317
C          C       0.77963   0.53491   0.37375   0.00382
C          C       0.53588   0.79033   0.62724   0.00558
C          C       0.46951   0.21641   0.62819   0.00400
C          C       0.78818   0.47015   0.62815   0.00298
C          C       0.21624   0.53227   0.62537   0.00766
C          C       0.97224   0.27553   0.87109   0.00454
C          C       0.02950   0.72127   0.87426   0.00577
C          C       0.71748   0.97322   0.87079   0.00797
C          C       0.28788   0.03242   0.87366   0.00382
C          C       0.03745   0.28492   0.12530   0.00259
C          C       0.96363   0.71220   0.12687   0.00498
C          C       0.28707   0.97065   0.13019  -0.00023
C          C       0.71390   0.03166   0.12323   0.00148
C          C       0.53508   0.73632   0.37399  -0.12693
C          C       0.46101   0.25721   0.37507  -0.12807
C          C       0.25835   0.53835   0.37551  -0.12777
C          C       0.73587   0.46674   0.37340  -0.12928
C          C       0.46916   0.74425   0.62733  -0.12519
C          C       0.53858   0.25899   0.62879  -0.12868
C          C       0.74346   0.53750   0.62951  -0.12696
C          C       0.26131   0.46532   0.62294  -0.12773
C          C       0.04169   0.23424   0.87327  -0.13006
C          C       0.96089   0.76396   0.87625  -0.12780
C          C       0.76580   0.03696   0.87985  -0.12951
C          C       0.24018   0.96710   0.87569  -0.12606
C          C       0.96999   0.23982   0.12566  -0.12578
C          C       0.03202   0.75581   0.12857  -0.12909
C          C       0.24662   0.04037   0.13482  -0.12715
C          C       0.75628   0.96292   0.12552  -0.12826
C          C       0.59733   0.76121   0.40641  -0.08277
C          C       0.39832   0.23472   0.40774  -0.08213
C          C       0.23481   0.59991   0.40872  -0.08209
C          C       0.75986   0.40330   0.40450  -0.08237
C          C       0.40492   0.76542   0.59577  -0.08411
C          C       0.60070   0.23647   0.59554  -0.08365
C          C       0.76400   0.60111   0.59709  -0.08618
C          C       0.23715   0.40266   0.59077  -0.07893
C          C       0.10238   0.26008   0.90693  -0.08376
C          C       0.89891   0.73837   0.90840  -0.08180
C          C       0.74108   0.09777   0.91341  -0.07246
C          C       0.26169   0.90377   0.90772  -0.08066
C          C       0.90547   0.26228   0.09483  -0.08458
C          C       0.09563   0.73390   0.09674  -0.08171
C          C       0.26780   0.10350   0.10227  -0.08992
C          C       0.73371   0.89952   0.09353  -0.08582
C          C       0.59249   0.83155   0.43493  -0.04466
C          C       0.40122   0.16470   0.43663  -0.04611
C          C       0.16462   0.59552   0.43769  -0.04511
C          C       0.83056   0.40644   0.43309  -0.04337
C          C       0.40566   0.83567   0.56709  -0.04899
C          C       0.59560   0.16820   0.56436  -0.04468
C          C       0.83238   0.59950   0.56580  -0.04161
C          C       0.16559   0.40521   0.56335  -0.05171
C          C       0.09574   0.33034   0.93541  -0.04542
C          C       0.90362   0.66736   0.93594  -0.05048
C          C       0.66625   0.09684   0.93553  -0.05641
C          C       0.33355   0.90392   0.93471  -0.05138
C          C       0.90667   0.33254   0.06609  -0.04249
C          C       0.09241   0.66540   0.06570  -0.04504
C          C       0.33296   0.09871   0.06777  -0.03759
C          C       0.66564   0.90321   0.06180  -0.04067
C          C       0.66095   0.86208   0.46546   0.63549
C          C       0.33307   0.13792   0.46919   0.63138
C          C       0.13770   0.66400   0.46971   0.63253
C          C       0.86033   0.33743   0.46290   0.63063
C          C       0.33545   0.86160   0.53670   0.63520
C          C       0.66268   0.14115   0.53086   0.63394
C          C       0.85816   0.66839   0.53354   0.63237
C          C       0.13750   0.33674   0.53181   0.63785
C          C       0.16261   0.36100   0.96795   0.63350
C          C       0.83554   0.63780   0.96722   0.63805
C          C       0.63821   0.16350   0.96877   0.63808
C          C       0.35923   0.83476   0.96596   0.63778
C          C       0.83620   0.35982   0.03627   0.62955
C          C       0.16100   0.63973   0.03325   0.62944
C          C       0.35973   0.16735   0.03587   0.63356
C          C       0.63798   0.83373   0.03105   0.63083
O          O       0.80328   0.85410   0.57505  -0.58624
O          O       0.19585   0.15422   0.57947  -0.57442
O          O       0.15198   0.79591   0.57795  -0.56873
O          O       0.84778   0.19633   0.57454  -0.59237
O          O       0.20569   0.84457   0.42531  -0.59123
O          O       0.80056   0.15503   0.41941  -0.58593
O          O       0.84462   0.79909   0.42188  -0.57653
O          O       0.15253   0.19596   0.42243  -0.59338
O          O       0.30513   0.35540   0.07796  -0.58166
O          O       0.69702   0.65138   0.07733  -0.58878
O          O       0.64919   0.30377   0.07986  -0.59354
O          O       0.34691   0.70023   0.07689  -0.58890
O          O       0.70712   0.34142   0.92482  -0.57866
O          O       0.28948   0.65595   0.92274  -0.56912
O          O       0.34378   0.30037   0.92454  -0.59229
O          O       0.65250   0.70008   0.92242  -0.58003
O          O       0.74210   0.96949   0.57281  -0.60376
O          O       0.25364   0.03721   0.57837  -0.60309
O          O       0.02745   0.75487   0.57720  -0.60984
O          O       0.96035   0.26316   0.57225  -0.59109
O          O       0.25389   0.96654   0.42696  -0.61494
O          O       0.74202   0.03773   0.41977  -0.59830
O          O       0.96545   0.74785   0.42260  -0.60533
O          O       0.03535   0.25477   0.42061  -0.61071
O          O       0.24230   0.46978   0.07548  -0.60277
O          O       0.75394   0.53326   0.07739  -0.61245
O          O       0.53176   0.24459   0.07750  -0.61132
O          O       0.46792   0.75201   0.07533  -0.61321
O          O       0.75785   0.46197   0.92502  -0.60096
O          O       0.24584   0.53288   0.92188  -0.61095
O          O       0.46157   0.24382   0.92477  -0.59117
O          O       0.53231   0.75180   0.92204  -0.59792
O          O       0.66059   0.93416   0.47614  -0.60166
O          O       0.33245   0.06710   0.48311  -0.60822
O          O       0.06631   0.66625   0.48319  -0.61208
O          O       0.93283   0.33683   0.47275  -0.60238
O          O       0.33219   0.93301   0.52467  -0.59569
O          O       0.66165   0.07036   0.51631  -0.60901
O          O       0.92929   0.66956   0.51939  -0.61189
O          O       0.06677   0.33716   0.51660  -0.59774
O          O       0.16216   0.43328   0.97804  -0.60809
O          O       0.83600   0.56667   0.98073  -0.59786
O          O       0.56629   0.16449   0.98040  -0.59684
O          O       0.43079   0.83164   0.97827  -0.59661
O          O       0.83562   0.43071   0.02218  -0.60677
O          O       0.16089   0.56984   0.01645  -0.60711
O          O       0.42986   0.16619   0.01959  -0.61027
O          O       0.56692   0.83292   0.01668  -0.60649
O          O       0.71412   0.81472   0.47798  -0.57896
O          O       0.28070   0.18673   0.48042  -0.58507
O          O       0.18787   0.71543   0.48061  -0.58036
O          O       0.81217   0.28493   0.47571  -0.58411
O          O       0.28414   0.81142   0.52517  -0.56953
O          O       0.71540   0.18973   0.51938  -0.58228
O          O       0.80869   0.72020   0.52259  -0.57774
O          O       0.18519   0.28274   0.52234  -0.57162
O          O       0.21476   0.31393   0.98297  -0.58461
O          O       0.78176   0.68524   0.97798  -0.57455
O          O       0.68729   0.21459   0.98324  -0.57750
O          O       0.30872   0.78417   0.97802  -0.57187
O          O       0.78234   0.31119   0.02759  -0.58087
O          O       0.21427   0.68896   0.02496  -0.58060
O          O       0.31193   0.22162   0.02774  -0.57845
O          O       0.68678   0.78052   0.02207  -0.58259
O          O       0.81669   0.92869   0.47755  -1.01220
O          O       0.17220   0.07106   0.48388  -0.99754
O          O       0.07461   0.82272   0.48066  -1.00142
O          O       0.92689   0.17853   0.47827  -1.00136
O          O       0.17752   0.92516   0.52210  -1.00268
O          O       0.82006   0.07418   0.51373  -1.00883
O          O       0.92565   0.82671   0.51430  -1.00870
O          O       0.07010   0.18135   0.51935  -1.00176
O          O       0.32014   0.42878   0.98072  -1.00355
O          O       0.67972   0.57104   0.98045  -1.00445
O          O       0.57445   0.31854   0.98044  -1.00484
O          O       0.42222   0.67800   0.97985  -1.00551
O          O       0.67585   0.42634   0.01821  -1.00353
O          O       0.31999   0.57455   0.01684  -1.00132
O          O       0.42912   0.32563   0.01743  -0.99942
O          O       0.57039   0.67231   0.01645  -0.99975
O          O       0.33528   0.74126   0.36416  -0.37827
O          O       0.66072   0.24615   0.36709  -0.37879
O          O       0.25007   0.33936   0.36585  -0.37782
O          O       0.74651   0.66671   0.36649  -0.37644
O          O       0.66836   0.75833   0.63335  -0.37883
O          O       0.33827   0.25204   0.63345  -0.37949
O          O       0.76059   0.33701   0.63367  -0.38100
O          O       0.25356   0.66308   0.63133  -0.37471
O          O       0.84361   0.23040   0.86395  -0.37996
O          O       0.16044   0.75889   0.86677  -0.37803
O          O       0.75758   0.84365   0.86377  -0.37447
O          O       0.25367   0.16372   0.86925  -0.37752
O          O       0.17147   0.25938   0.13341  -0.37473
O          O       0.83189   0.74802   0.13322  -0.37583
O          O       0.25372   0.83863   0.13612  -0.37998
O          O       0.74613   0.16392   0.13038  -0.37714

