data_crystal

_audit_creation_method 'AiiDA-DDEC plugin'

_cell_length_a        17.40431
_cell_length_b        17.40431
_cell_length_c        23.96595

_cell_angle_alpha     90.00000
_cell_angle_beta     90.00000
_cell_angle_gamma     90.00000

_symmetry_space_group_name_Hall 'P 1'
_symmetry_space_group_name_H-M  'P 1'

loop_
_symmetry_equiv_pos_as_xyz
 'x,y,z'

loop_
_atom_site_label
_atom_site_type_symbol
_atom_site_fract_x
_atom_site_fract_y
_atom_site_fract_z
_atom_site_charge
Al         Al      0.82134   0.82134   0.50000   1.67651
Al         Al      0.17866   0.17866   0.50000   1.67646
Al         Al      0.17866   0.82134   0.50000   1.67645
Al         Al      0.82134   0.17866   0.50000   1.67649
Al         Al      0.32134   0.32134   0.00000   1.67655
Al         Al      0.67866   0.67866   0.00000   1.67654
Al         Al      0.67866   0.32134   0.00000   1.67662
Al         Al      0.32134   0.67866   0.00000   1.67661
Al         Al      0.74616   0.00000   0.50000   1.68826
Al         Al      0.25384   0.00000   0.50000   1.68817
Al         Al     -0.00000   0.74616   0.50000   1.68838
Al         Al      0.00000   0.25384   0.50000   1.68816
Al         Al      0.24616   0.50000   0.00000   1.68824
Al         Al      0.75384   0.50000   0.00000   1.68795
Al         Al      0.50000   0.24616   0.00000   1.68824
Al         Al      0.50000   0.75384   0.00000   1.68795
H          H       0.81398   0.79779   0.77716   0.11267
H          H       0.18602   0.20221   0.77716   0.11267
H          H       0.20221   0.81398   0.77716   0.11272
H          H       0.79779   0.18602   0.77716   0.11263
H          H       0.18602   0.79779   0.22284   0.11260
H          H       0.81398   0.20221   0.22284   0.11269
H          H       0.79779   0.81398   0.22284   0.11265
H          H       0.20221   0.18602   0.22284   0.11266
H          H       0.31398   0.29779   0.27716   0.11266
H          H       0.68602   0.70221   0.27716   0.11271
H          H       0.70221   0.31398   0.27716   0.11277
H          H       0.29779   0.68602   0.27716   0.11263
H          H       0.68602   0.29779   0.72284   0.11256
H          H       0.31398   0.70221   0.72284   0.11271
H          H       0.29779   0.31398   0.72284   0.11263
H          H       0.70221   0.68602   0.72284   0.11266
H          H       0.82317   0.79680   0.67196   0.12282
H          H       0.17683   0.20320   0.67196   0.12291
H          H       0.20320   0.82317   0.67196   0.12304
H          H       0.79680   0.17683   0.67196   0.12278
H          H       0.17683   0.79680   0.32804   0.12290
H          H       0.82317   0.20320   0.32804   0.12314
H          H       0.79680   0.82317   0.32804   0.12304
H          H       0.20320   0.17683   0.32804   0.12307
H          H       0.32317   0.29680   0.17196   0.12299
H          H       0.67683   0.70320   0.17196   0.12298
H          H       0.70320   0.32317   0.17196   0.12311
H          H       0.29680   0.67683   0.17196   0.12284
H          H       0.67683   0.29680   0.82804   0.12296
H          H       0.32317   0.70320   0.82804   0.12318
H          H       0.29680   0.32317   0.82804   0.12308
H          H       0.70320   0.67683   0.82804   0.12312
H          H       0.71107   0.01610   0.66600   0.12477
H          H       0.28894   0.98390   0.66600   0.12473
H          H       0.98390   0.71107   0.66600   0.12469
H          H       0.01610   0.28894   0.66600   0.12482
H          H       0.28894   0.01610   0.33400   0.12491
H          H       0.71107   0.98390   0.33400   0.12474
H          H       0.01610   0.71107   0.33400   0.12481
H          H       0.98390   0.28894   0.33400   0.12478
H          H       0.21107   0.51611   0.16600   0.12481
H          H       0.78894   0.48390   0.16600   0.12472
H          H       0.48390   0.21107   0.16600   0.12470
H          H       0.51611   0.78894   0.16600   0.12486
H          H       0.78894   0.51611   0.83400   0.12497
H          H       0.21107   0.48390   0.83400   0.12480
H          H       0.51611   0.21107   0.83400   0.12489
H          H       0.48390   0.78894   0.83400   0.12486
H          H       0.70083   0.01700   0.77024   0.10996
H          H       0.29918   0.98300   0.77024   0.10991
H          H       0.98300   0.70083   0.77024   0.10978
H          H       0.01700   0.29918   0.77024   0.11002
H          H       0.29918   0.01700   0.22976   0.10994
H          H       0.70083   0.98300   0.22976   0.10974
H          H       0.01700   0.70083   0.22976   0.10986
H          H       0.98300   0.29918   0.22976   0.10985
H          H       0.20083   0.51701   0.27024   0.10989
H          H       0.79918   0.48300   0.27024   0.10993
H          H       0.48300   0.20083   0.27024   0.10982
H          H       0.51701   0.79918   0.27024   0.11002
H          H       0.79918   0.51701   0.72976   0.10997
H          H       0.20083   0.48300   0.72976   0.10975
H          H       0.51701   0.20083   0.72976   0.10992
H          H       0.48300   0.79918   0.72976   0.10986
H          H       0.52819   0.93156   0.45439   0.11652
H          H       0.47181   0.06844   0.45439   0.11644
H          H       0.06844   0.52819   0.45439   0.11642
H          H       0.93156   0.47181   0.45439   0.11651
H          H       0.47181   0.93156   0.54562   0.11643
H          H       0.52819   0.06844   0.54562   0.11636
H          H       0.93156   0.52819   0.54562   0.11643
H          H       0.06844   0.47181   0.54562   0.11637
H          H       0.02819   0.43156   0.95439   0.11648
H          H       0.97181   0.56844   0.95439   0.11644
H          H       0.56844   0.02819   0.95439   0.11640
H          H       0.43156   0.97181   0.95439   0.11648
H          H       0.97181   0.43156   0.04561   0.11644
H          H       0.02819   0.56844   0.04561   0.11635
H          H       0.43156   0.02819   0.04561   0.11642
H          H       0.56844   0.97181   0.04561   0.11635
H          H       0.41258   0.88262   0.40307   0.12040
H          H       0.58742   0.11738   0.40307   0.12044
H          H       0.11738   0.41258   0.40307   0.12039
H          H       0.88262   0.58742   0.40307   0.12053
H          H       0.58742   0.88262   0.59693   0.12052
H          H       0.41258   0.11738   0.59693   0.12037
H          H       0.88262   0.41258   0.59693   0.12040
H          H       0.11738   0.58742   0.59693   0.12044
H          H       0.91258   0.38262   0.90308   0.12035
H          H       0.08742   0.61738   0.90308   0.12040
H          H       0.61738   0.91258   0.90308   0.12033
H          H       0.38262   0.08742   0.90308   0.12043
H          H       0.08742   0.38262   0.09693   0.12039
H          H       0.91258   0.61738   0.09693   0.12032
H          H       0.38262   0.91258   0.09693   0.12034
H          H       0.61738   0.08742   0.09693   0.12036
H          H       0.54375   0.68602   0.34893   0.11049
H          H       0.45625   0.31399   0.34893   0.11060
H          H       0.31399   0.54375   0.34893   0.11065
H          H       0.68602   0.45625   0.34893   0.11048
H          H       0.45625   0.68602   0.65107   0.11056
H          H       0.54375   0.31399   0.65107   0.11080
H          H       0.68602   0.54375   0.65107   0.11060
H          H       0.31399   0.45625   0.65107   0.11075
H          H       0.04375   0.18602   0.84893   0.11050
H          H       0.95626   0.81399   0.84893   0.11056
H          H       0.81399   0.04375   0.84893   0.11061
H          H       0.18602   0.95626   0.84893   0.11043
H          H       0.95626   0.18602   0.15107   0.11055
H          H       0.04375   0.81399   0.15107   0.11075
H          H       0.18602   0.04375   0.15107   0.11055
H          H       0.81399   0.95626   0.15107   0.11077
H          H       0.65437   0.72933   0.40761   0.13372
H          H       0.34563   0.27067   0.40761   0.13369
H          H       0.27067   0.65437   0.40761   0.13380
H          H       0.72933   0.34563   0.40761   0.13364
H          H       0.34563   0.72933   0.59239   0.13364
H          H       0.65437   0.27067   0.59239   0.13378
H          H       0.72933   0.65437   0.59239   0.13371
H          H       0.27067   0.34563   0.59239   0.13375
H          H       0.15437   0.22933   0.90761   0.13368
H          H       0.84564   0.77067   0.90761   0.13366
H          H       0.77067   0.15437   0.90761   0.13372
H          H       0.22933   0.84564   0.90761   0.13365
H          H       0.84564   0.22933   0.09239   0.13369
H          H       0.15437   0.77067   0.09239   0.13379
H          H       0.22933   0.15437   0.09239   0.13374
H          H       0.77067   0.84564   0.09239   0.13370
H          H       0.85014   0.93847   0.44931   0.42460
H          H       0.14987   0.06153   0.44931   0.42452
H          H       0.06153   0.85014   0.44931   0.42458
H          H       0.93847   0.14987   0.44931   0.42453
H          H       0.14987   0.93847   0.55069   0.42465
H          H       0.85014   0.06153   0.55069   0.42465
H          H       0.93847   0.85014   0.55069   0.42468
H          H       0.06153   0.14987   0.55069   0.42461
H          H       0.35013   0.43847   0.94931   0.42449
H          H       0.64987   0.56153   0.94931   0.42419
H          H       0.56153   0.35013   0.94931   0.42444
H          H       0.43847   0.64987   0.94931   0.42426
H          H       0.64987   0.43847   0.05069   0.42452
H          H       0.35013   0.56153   0.05069   0.42457
H          H       0.43847   0.35013   0.05069   0.42460
H          H       0.56153   0.64987   0.05069   0.42451
C          C       0.40191   0.75481   0.34145   0.34329
C          C       0.59809   0.24519   0.34145   0.34323
C          C       0.24519   0.40191   0.34145   0.34330
C          C       0.75481   0.59809   0.34145   0.34333
C          C       0.59809   0.75481   0.65855   0.34338
C          C       0.40191   0.24519   0.65855   0.34354
C          C       0.75481   0.40191   0.65855   0.34345
C          C       0.24519   0.59809   0.65855   0.34327
C          C       0.90191   0.25481   0.84145   0.34343
C          C       0.09809   0.74520   0.84145   0.34331
C          C       0.74520   0.90191   0.84145   0.34347
C          C       0.25481   0.09809   0.84145   0.34332
C          C       0.09809   0.25481   0.15855   0.34341
C          C       0.90191   0.74520   0.15855   0.34351
C          C       0.25481   0.90191   0.15855   0.34354
C          C       0.74520   0.09809   0.15855   0.34334
C          C       0.75745   0.90727   0.77999  -0.01395
C          C       0.24255   0.09273   0.77999  -0.01396
C          C       0.09273   0.75745   0.77999  -0.01386
C          C       0.90727   0.24255   0.77999  -0.01403
C          C       0.24255   0.90727   0.22001  -0.01425
C          C       0.75745   0.09273   0.22001  -0.01383
C          C       0.90727   0.75745   0.22001  -0.01399
C          C       0.09273   0.24255   0.22001  -0.01400
C          C       0.25745   0.40727   0.27999  -0.01396
C          C       0.74255   0.59273   0.27999  -0.01401
C          C       0.59273   0.25745   0.27999  -0.01372
C          C       0.40727   0.74255   0.27999  -0.01403
C          C       0.74255   0.40727   0.72001  -0.01402
C          C       0.25745   0.59273   0.72001  -0.01374
C          C       0.40727   0.25745   0.72001  -0.01395
C          C       0.59273   0.74255   0.72001  -0.01391
C          C       0.79256   0.84535   0.75213  -0.09756
C          C       0.20744   0.15466   0.75213  -0.09761
C          C       0.15466   0.79256   0.75213  -0.09754
C          C       0.84535   0.20744   0.75213  -0.09760
C          C       0.20744   0.84535   0.24787  -0.09764
C          C       0.79256   0.15466   0.24787  -0.09768
C          C       0.84535   0.79256   0.24787  -0.09774
C          C       0.15466   0.20744   0.24787  -0.09766
C          C       0.29256   0.34534   0.25213  -0.09758
C          C       0.70745   0.65466   0.25213  -0.09768
C          C       0.65466   0.29256   0.25213  -0.09774
C          C       0.34534   0.70745   0.25213  -0.09764
C          C       0.70745   0.34534   0.74787  -0.09767
C          C       0.29256   0.65466   0.74787  -0.09787
C          C       0.34534   0.29256   0.74787  -0.09778
C          C       0.65466   0.70745   0.74787  -0.09779
C          C       0.79758   0.84482   0.69424  -0.08657
C          C       0.20242   0.15518   0.69424  -0.08658
C          C       0.15518   0.79758   0.69424  -0.08668
C          C       0.84482   0.20242   0.69424  -0.08658
C          C       0.20242   0.84482   0.30576  -0.08668
C          C       0.79758   0.15518   0.30576  -0.08667
C          C       0.84482   0.79758   0.30576  -0.08663
C          C       0.15518   0.20242   0.30576  -0.08668
C          C       0.29758   0.34482   0.19424  -0.08671
C          C       0.70242   0.65519   0.19424  -0.08653
C          C       0.65519   0.29758   0.19424  -0.08664
C          C       0.34482   0.70242   0.19424  -0.08660
C          C       0.70242   0.34482   0.80576  -0.08669
C          C       0.29758   0.65519   0.80576  -0.08657
C          C       0.34482   0.29758   0.80576  -0.08668
C          C       0.65519   0.70242   0.80576  -0.08668
C          C       0.76779   0.90664   0.66330  -0.03732
C          C       0.23221   0.09336   0.66330  -0.03721
C          C       0.09336   0.76779   0.66330  -0.03730
C          C       0.90664   0.23221   0.66330  -0.03732
C          C       0.23221   0.90664   0.33670  -0.03732
C          C       0.76779   0.09336   0.33670  -0.03730
C          C       0.90664   0.76779   0.33670  -0.03738
C          C       0.09336   0.23221   0.33670  -0.03736
C          C       0.26779   0.40664   0.16330  -0.03728
C          C       0.73221   0.59336   0.16330  -0.03739
C          C       0.59336   0.26779   0.16330  -0.03727
C          C       0.40664   0.73221   0.16330  -0.03737
C          C       0.73221   0.40664   0.83670  -0.03730
C          C       0.26779   0.59336   0.83670  -0.03737
C          C       0.40664   0.26779   0.83670  -0.03717
C          C       0.59336   0.73221   0.83670  -0.03730
C          C       0.73383   0.96908   0.69090  -0.09756
C          C       0.26617   0.03092   0.69090  -0.09764
C          C       0.03092   0.73383   0.69090  -0.09761
C          C       0.96908   0.26617   0.69090  -0.09755
C          C       0.26617   0.96908   0.30910  -0.09752
C          C       0.73383   0.03092   0.30910  -0.09757
C          C       0.96908   0.73383   0.30910  -0.09743
C          C       0.03092   0.26617   0.30910  -0.09756
C          C       0.23383   0.46908   0.19090  -0.09767
C          C       0.76617   0.53092   0.19090  -0.09751
C          C       0.53092   0.23383   0.19090  -0.09765
C          C       0.46908   0.76617   0.19090  -0.09759
C          C       0.76617   0.46908   0.80910  -0.09752
C          C       0.23383   0.53092   0.80910  -0.09750
C          C       0.46908   0.23383   0.80910  -0.09750
C          C       0.53092   0.76617   0.80910  -0.09757
C          C       0.72870   0.96945   0.74888  -0.10925
C          C       0.27131   0.03055   0.74888  -0.10924
C          C       0.03055   0.72870   0.74888  -0.10925
C          C       0.96945   0.27131   0.74888  -0.10920
C          C       0.27131   0.96945   0.25112  -0.10908
C          C       0.72870   0.03055   0.25112  -0.10928
C          C       0.96945   0.72870   0.25112  -0.10926
C          C       0.03055   0.27131   0.25112  -0.10920
C          C       0.22869   0.46945   0.24888  -0.10919
C          C       0.77131   0.53055   0.24888  -0.10931
C          C       0.53055   0.22869   0.24888  -0.10936
C          C       0.46945   0.77131   0.24888  -0.10919
C          C       0.77131   0.46945   0.75112  -0.10937
C          C       0.22869   0.53055   0.75112  -0.10943
C          C       0.46945   0.22869   0.75112  -0.10951
C          C       0.53055   0.77131   0.75112  -0.10935
C          C       0.77143   0.90633   0.60101   0.62504
C          C       0.22857   0.09367   0.60101   0.62495
C          C       0.09367   0.77143   0.60101   0.62494
C          C       0.90633   0.22857   0.60101   0.62516
C          C       0.22857   0.90633   0.39899   0.62509
C          C       0.77143   0.09367   0.39899   0.62492
C          C       0.90633   0.77143   0.39899   0.62497
C          C       0.09367   0.22857   0.39899   0.62492
C          C       0.27143   0.40633   0.10101   0.62506
C          C       0.72858   0.59367   0.10101   0.62486
C          C       0.59367   0.27143   0.10101   0.62487
C          C       0.40633   0.72858   0.10101   0.62517
C          C       0.72858   0.40633   0.89899   0.62506
C          C       0.27143   0.59367   0.89899   0.62490
C          C       0.40633   0.27143   0.89899   0.62491
C          C       0.59367   0.72858   0.89899   0.62488
C          C       0.52969   0.87682   0.43261  -0.09018
C          C       0.47031   0.12318   0.43261  -0.09037
C          C       0.12318   0.52969   0.43261  -0.09035
C          C       0.87682   0.47031   0.43261  -0.09017
C          C       0.47031   0.87682   0.56739  -0.09028
C          C       0.52969   0.12318   0.56739  -0.09035
C          C       0.87682   0.52969   0.56739  -0.09024
C          C       0.12318   0.47031   0.56739  -0.09043
C          C       0.02969   0.37682   0.93261  -0.09009
C          C       0.97031   0.62318   0.93261  -0.09042
C          C       0.62318   0.02969   0.93261  -0.09032
C          C       0.37682   0.97031   0.93261  -0.09011
C          C       0.97031   0.37682   0.06739  -0.09026
C          C       0.02969   0.62318   0.06739  -0.09030
C          C       0.37682   0.02969   0.06739  -0.09020
C          C       0.62318   0.97031   0.06739  -0.09036
C          C       0.46609   0.85026   0.40323  -0.11264
C          C       0.53391   0.14975   0.40323  -0.11244
C          C       0.14975   0.46609   0.40323  -0.11262
C          C       0.85026   0.53391   0.40323  -0.11253
C          C       0.53391   0.85026   0.59677  -0.11243
C          C       0.46609   0.14975   0.59677  -0.11256
C          C       0.85026   0.46609   0.59677  -0.11245
C          C       0.14975   0.53391   0.59677  -0.11239
C          C       0.96609   0.35025   0.90323  -0.11264
C          C       0.03391   0.64975   0.90323  -0.11244
C          C       0.64975   0.96609   0.90323  -0.11260
C          C       0.35025   0.03391   0.90323  -0.11252
C          C       0.03391   0.35025   0.09677  -0.11228
C          C       0.96609   0.64975   0.09677  -0.11259
C          C       0.35025   0.96609   0.09677  -0.11245
C          C       0.64975   0.03391   0.09677  -0.11244
C          C       0.47130   0.78167   0.37257   0.00338
C          C       0.52870   0.21833   0.37257   0.00324
C          C       0.21833   0.47130   0.37257   0.00339
C          C       0.78167   0.52870   0.37257   0.00335
C          C       0.52870   0.78167   0.62743   0.00324
C          C       0.47130   0.21833   0.62743   0.00328
C          C       0.78167   0.47130   0.62743   0.00323
C          C       0.21833   0.52870   0.62743   0.00325
C          C       0.97131   0.28167   0.87258   0.00336
C          C       0.02870   0.71833   0.87258   0.00331
C          C       0.71833   0.97131   0.87258   0.00334
C          C       0.28167   0.02870   0.87258   0.00343
C          C       0.02870   0.28167   0.12743   0.00320
C          C       0.97131   0.71833   0.12743   0.00344
C          C       0.28167   0.97131   0.12743   0.00336
C          C       0.71833   0.02870   0.12743   0.00334
C          C       0.53972   0.73887   0.37307  -0.12759
C          C       0.46028   0.26114   0.37307  -0.12748
C          C       0.26114   0.53972   0.37307  -0.12759
C          C       0.73887   0.46028   0.37307  -0.12768
C          C       0.46028   0.73887   0.62693  -0.12758
C          C       0.53972   0.26114   0.62693  -0.12768
C          C       0.73887   0.53972   0.62693  -0.12759
C          C       0.26114   0.46028   0.62693  -0.12762
C          C       0.03972   0.23887   0.87307  -0.12739
C          C       0.96028   0.76114   0.87307  -0.12727
C          C       0.76114   0.03972   0.87307  -0.12737
C          C       0.23887   0.96028   0.87307  -0.12739
C          C       0.96028   0.23887   0.12693  -0.12735
C          C       0.03972   0.76114   0.12693  -0.12749
C          C       0.23887   0.03972   0.12693  -0.12741
C          C       0.76114   0.96028   0.12693  -0.12747
C          C       0.60167   0.76292   0.40560  -0.08374
C          C       0.39834   0.23709   0.40560  -0.08374
C          C       0.23709   0.60167   0.40560  -0.08371
C          C       0.76292   0.39834   0.40560  -0.08377
C          C       0.39834   0.76292   0.59440  -0.08380
C          C       0.60167   0.23709   0.59440  -0.08370
C          C       0.76292   0.60167   0.59440  -0.08371
C          C       0.23709   0.39834   0.59440  -0.08383
C          C       0.10166   0.26292   0.90560  -0.08379
C          C       0.89834   0.73709   0.90560  -0.08383
C          C       0.73709   0.10166   0.90560  -0.08370
C          C       0.26292   0.89834   0.90560  -0.08386
C          C       0.89834   0.26292   0.09440  -0.08394
C          C       0.10166   0.73709   0.09440  -0.08377
C          C       0.26292   0.10166   0.09440  -0.08382
C          C       0.73709   0.89834   0.09440  -0.08388
C          C       0.59707   0.83261   0.43485  -0.04537
C          C       0.40293   0.16739   0.43485  -0.04547
C          C       0.16739   0.59707   0.43485  -0.04538
C          C       0.83261   0.40293   0.43485  -0.04539
C          C       0.40293   0.83261   0.56515  -0.04532
C          C       0.59707   0.16739   0.56515  -0.04539
C          C       0.83261   0.59707   0.56515  -0.04546
C          C       0.16739   0.40293   0.56515  -0.04525
C          C       0.09707   0.33261   0.93485  -0.04534
C          C       0.90293   0.66740   0.93485  -0.04526
C          C       0.66740   0.09707   0.93485  -0.04532
C          C       0.33261   0.90293   0.93485  -0.04540
C          C       0.90293   0.33261   0.06515  -0.04537
C          C       0.09707   0.66740   0.06515  -0.04537
C          C       0.33261   0.09707   0.06515  -0.04543
C          C       0.66740   0.90293   0.06515  -0.04521
C          C       0.66484   0.86044   0.46699   0.63341
C          C       0.33517   0.13956   0.46699   0.63354
C          C       0.13956   0.66484   0.46699   0.63352
C          C       0.86044   0.33517   0.46699   0.63342
C          C       0.33517   0.86044   0.53301   0.63348
C          C       0.66484   0.13956   0.53301   0.63352
C          C       0.86044   0.66484   0.53301   0.63351
C          C       0.13956   0.33517   0.53301   0.63339
C          C       0.16483   0.36044   0.96700   0.63340
C          C       0.83517   0.63956   0.96700   0.63348
C          C       0.63956   0.16483   0.96700   0.63352
C          C       0.36044   0.83517   0.96700   0.63343
C          C       0.83517   0.36044   0.03301   0.63348
C          C       0.16483   0.63956   0.03301   0.63348
C          C       0.36044   0.16483   0.03301   0.63350
C          C       0.63956   0.83517   0.03301   0.63342
O          O       0.79964   0.84726   0.57736  -0.58210
O          O       0.20036   0.15274   0.57736  -0.58201
O          O       0.15274   0.79964   0.57736  -0.58189
O          O       0.84726   0.20036   0.57736  -0.58227
O          O       0.20036   0.84726   0.42264  -0.58221
O          O       0.79964   0.15274   0.42264  -0.58186
O          O       0.84726   0.79964   0.42264  -0.58202
O          O       0.15274   0.20036   0.42264  -0.58196
O          O       0.29964   0.34726   0.07736  -0.58203
O          O       0.70037   0.65275   0.07736  -0.58189
O          O       0.65275   0.29964   0.07736  -0.58181
O          O       0.34726   0.70037   0.07736  -0.58223
O          O       0.70037   0.34726   0.92264  -0.58215
O          O       0.29964   0.65275   0.92264  -0.58180
O          O       0.34726   0.29964   0.92264  -0.58198
O          O       0.65275   0.70037   0.92264  -0.58192
O          O       0.74599   0.96632   0.57639  -0.60438
O          O       0.25401   0.03368   0.57639  -0.60439
O          O       0.03368   0.74599   0.57639  -0.60450
O          O       0.96632   0.25401   0.57639  -0.60432
O          O       0.25401   0.96632   0.42362  -0.60427
O          O       0.74599   0.03368   0.42362  -0.60447
O          O       0.96632   0.74599   0.42362  -0.60437
O          O       0.03368   0.25401   0.42362  -0.60435
O          O       0.24599   0.46632   0.07638  -0.60440
O          O       0.75401   0.53368   0.07638  -0.60431
O          O       0.53368   0.24599   0.07638  -0.60446
O          O       0.46632   0.75401   0.07638  -0.60428
O          O       0.75401   0.46632   0.92362  -0.60422
O          O       0.24599   0.53368   0.92362  -0.60444
O          O       0.46632   0.24599   0.92362  -0.60430
O          O       0.53368   0.75401   0.92362  -0.60425
O          O       0.66530   0.93146   0.48071  -0.60804
O          O       0.33470   0.06855   0.48071  -0.60812
O          O       0.06855   0.66530   0.48071  -0.60826
O          O       0.93146   0.33470   0.48071  -0.60796
O          O       0.33470   0.93146   0.51929  -0.60802
O          O       0.66530   0.06855   0.51929  -0.60824
O          O       0.93146   0.66530   0.51929  -0.60813
O          O       0.06855   0.33470   0.51929  -0.60814
O          O       0.16530   0.43145   0.98071  -0.60807
O          O       0.83470   0.56855   0.98071  -0.60810
O          O       0.56855   0.16530   0.98071  -0.60826
O          O       0.43145   0.83470   0.98071  -0.60796
O          O       0.83470   0.43145   0.01929  -0.60798
O          O       0.16530   0.56855   0.01929  -0.60825
O          O       0.43145   0.16530   0.01929  -0.60814
O          O       0.56855   0.83470   0.01929  -0.60810
O          O       0.71694   0.81140   0.47803  -0.57962
O          O       0.28306   0.18860   0.47803  -0.57954
O          O       0.18860   0.71694   0.47803  -0.57951
O          O       0.81140   0.28306   0.47803  -0.57967
O          O       0.28306   0.81140   0.52197  -0.57977
O          O       0.71694   0.18860   0.52197  -0.57955
O          O       0.81140   0.71694   0.52197  -0.57968
O          O       0.18860   0.28306   0.52197  -0.57956
O          O       0.21694   0.31140   0.97803  -0.57954
O          O       0.78306   0.68860   0.97803  -0.57949
O          O       0.68860   0.21694   0.97803  -0.57943
O          O       0.31140   0.78306   0.97803  -0.57961
O          O       0.78306   0.31140   0.02197  -0.57969
O          O       0.21694   0.68860   0.02197  -0.57944
O          O       0.31140   0.21694   0.02197  -0.57959
O          O       0.68860   0.78306   0.02197  -0.57953
O          O       0.82171   0.92668   0.48296  -1.00972
O          O       0.17829   0.07333   0.48296  -1.00978
O          O       0.07333   0.82171   0.48296  -1.00975
O          O       0.92668   0.17829   0.48296  -1.00972
O          O       0.17829   0.92668   0.51704  -1.00978
O          O       0.82171   0.07333   0.51704  -1.00974
O          O       0.92668   0.82171   0.51704  -1.00976
O          O       0.07333   0.17829   0.51704  -1.00980
O          O       0.32171   0.42668   0.98296  -1.00969
O          O       0.67829   0.57333   0.98296  -1.00943
O          O       0.57333   0.32171   0.98296  -1.00970
O          O       0.42668   0.67829   0.98296  -1.00949
O          O       0.67829   0.42668   0.01704  -1.00975
O          O       0.32171   0.57333   0.01704  -1.00978
O          O       0.42668   0.32171   0.01704  -1.00977
O          O       0.57333   0.67829   0.01704  -1.00978
O          O       0.34046   0.74653   0.36651  -0.37791
O          O       0.65955   0.25348   0.36651  -0.37772
O          O       0.25348   0.34046   0.36651  -0.37791
O          O       0.74653   0.65955   0.36651  -0.37779
O          O       0.65955   0.74653   0.63349  -0.37791
O          O       0.34046   0.25348   0.63349  -0.37810
O          O       0.74653   0.34046   0.63349  -0.37808
O          O       0.25348   0.65955   0.63349  -0.37781
O          O       0.84046   0.24653   0.86651  -0.37801
O          O       0.15954   0.75348   0.86651  -0.37780
O          O       0.75348   0.84046   0.86651  -0.37802
O          O       0.24653   0.15954   0.86651  -0.37781
O          O       0.15954   0.24653   0.13349  -0.37791
O          O       0.84046   0.75348   0.13349  -0.37812
O          O       0.24653   0.84046   0.13349  -0.37814
O          O       0.75348   0.15954   0.13349  -0.37788

