data_crystal

_cell_length_a 16.79841
_cell_length_b 15.56433
_cell_length_c 24.09482
_cell_angle_alpha 98.00011
_cell_angle_beta  82.00238
_cell_angle_gamma 116.25535

_symmetry_space_group_name_	'P 1'
_symmetry_space_group_name_H-M	'P 1'

loop_
_symmetry_equiv_pos_as_xyz
  x,y,z

loop_
_atom_site_label
_atom_site_type_symbol
_atom_site_fract_x
_atom_site_fract_y
_atom_site_fract_z
_atom_site_charge
C 	C 	0.66950 0.39630 0.99852 0.03000
C 	C 	0.57852 0.33269 0.00597 -0.07500
C 	C 	0.55180 0.23250 0.00064 0.01900
C 	C 	0.61703 0.19756 0.99224 -0.06500
C 	C 	0.70743 0.26174 0.98574 0.02900
C 	C 	0.73110 0.35841 0.98033 -0.07200
H 	H 	0.53007 0.36103 0.02013 0.04600
H 	H 	0.59768 0.12177 0.99445 0.05200
H 	H 	0.80095 0.40694 0.97293 0.04800
C 	C 	0.66950 0.39630 0.49852 0.02000
C 	C 	0.57852 0.33269 0.50597 -0.06600
C 	C 	0.55180 0.23250 0.50064 0.02100
C 	C 	0.61703 0.19756 0.49224 -0.06600
C 	C 	0.70743 0.26174 0.48574 0.02400
C 	C 	0.73110 0.35841 0.48033 -0.06700
H 	H 	0.53007 0.36104 0.52013 0.04500
H 	H 	0.59768 0.12177 0.49445 0.05100
H 	H 	0.80095 0.40694 0.47293 0.04600
C 	C 	0.32042 0.61299 0.25753 0.01700
C 	C 	0.25873 0.65078 0.27564 -0.06700
C 	C 	0.28236 0.74746 0.27028 0.01700
C 	C 	0.37275 0.81171 0.26389 -0.06800
C 	C 	0.43802 0.77686 0.25554 0.01800
C 	C 	0.41138 0.67667 0.25015 -0.06700
H 	H 	0.18888 0.60220 0.28296 0.04000
H 	H 	0.39205 0.88750 0.26172 0.03700
H 	H 	0.45990 0.64841 0.23601 0.04400
C 	C 	0.32042 0.61299 0.75753 0.01700
C 	C 	0.25873 0.65078 0.77564 -0.06700
C 	C 	0.28236 0.74746 0.77028 0.01700
C 	C 	0.37274 0.81171 0.76389 -0.06800
C 	C 	0.43802 0.77686 0.75554 0.01800
C 	C 	0.41138 0.67667 0.75015 -0.06700
H 	H 	0.18888 0.60220 0.78296 0.04100
H 	H 	0.39205 0.88750 0.76172 0.03700
H 	H 	0.45990 0.64841 0.73601 0.04500
C 	C 	0.19492 0.97170 0.05418 0.18600
C 	C 	0.99897 0.09737 0.28255 0.33400
C 	C 	0.00655 0.81341 0.20688 0.23400
C 	C 	0.18911 0.25708 0.12815 0.28700
O 	O 	0.13910 0.00362 0.07905 -0.40000
O 	O 	0.00273 0.04939 0.23475 -0.58100
O 	O 	0.01990 0.87449 0.17105 -0.46800
O 	O 	0.12019 0.18002 0.14323 -0.45800
O 	O 	0.16193 0.87906 0.04239 -0.36000
O 	O 	0.99448 0.17806 0.28018 -0.36100
O 	O 	0.93935 0.80088 0.24400 -0.33100
O 	O 	0.21672 0.25550 0.07516 -0.36800
Cd	Cd	0.10240 0.10781 0.04397 1.22900
Cd	Cd	0.88743 0.90141 0.21227 1.22500
Cd	Cd	0.00941 0.84550 0.07453 1.20400
Cd	Cd	0.98049 0.16353 0.18166 1.22900
C 	C 	0.99087 0.91168 0.97365 0.33800
C 	C 	0.79480 0.03761 0.20179 0.32400
C 	C 	0.80086 0.75205 0.12805 0.28700
C 	C 	0.98317 0.19564 0.04916 0.30700
O 	O 	0.98711 0.95968 0.02145 -0.57400
O 	O 	0.85050 0.00542 0.17707 -0.43900
O 	O 	0.86980 0.82916 0.11309 -0.45000
O 	O 	0.96974 0.13472 0.08511 -0.43700
O 	O 	0.99532 0.83097 0.97604 -0.36800
O 	O 	0.82803 0.13023 0.21370 -0.36000
O 	O 	0.77307 0.75357 0.18101 -0.36600
O 	O 	0.05045 0.20814 0.01212 -0.38800
H 	H 	0.06059 0.04410 0.22209 0.20000
H 	H 	0.92923 0.96495 0.03411 0.18000
O 	O 	0.99490 0.00454 0.12808 -0.29900
C 	C 	0.19492 0.97170 0.55418 0.18500
C 	C 	0.99897 0.09737 0.78255 0.33200
C 	C 	0.00655 0.81341 0.70688 0.23500
C 	C 	0.18911 0.25708 0.62815 0.28700
O 	O 	0.13910 0.00362 0.57905 -0.39900
O 	O 	0.00273 0.04939 0.73475 -0.57900
O 	O 	0.01990 0.87449 0.67105 -0.46800
O 	O 	0.12019 0.18002 0.64323 -0.45700
O 	O 	0.16193 0.87906 0.54239 -0.35800
O 	O 	0.99448 0.17806 0.78018 -0.36100
O 	O 	0.93935 0.80088 0.74399 -0.33200
O 	O 	0.21672 0.25550 0.57516 -0.36700
Cd	Cd	0.10240 0.10781 0.54397 1.22900
Cd	Cd	0.88743 0.90141 0.71227 1.22500
Cd	Cd	0.00941 0.84550 0.57454 1.20500
Cd	Cd	0.98049 0.16353 0.68166 1.22900
C 	C 	0.99087 0.91168 0.47365 0.33300
C 	C 	0.79480 0.03761 0.70179 0.32300
C 	C 	0.80085 0.75205 0.62805 0.28700
C 	C 	0.98317 0.19564 0.54916 0.30500
O 	O 	0.98710 0.95968 0.52145 -0.57000
O 	O 	0.85050 0.00542 0.67707 -0.43900
O 	O 	0.86980 0.82916 0.61309 -0.45000
O 	O 	0.96974 0.13472 0.58511 -0.43700
O 	O 	0.99532 0.83097 0.47604 -0.36900
O 	O 	0.82803 0.13023 0.71370 -0.36000
O 	O 	0.77307 0.75357 0.68101 -0.36600
O 	O 	0.05045 0.20814 0.51211 -0.38500
H 	H 	0.06059 0.04410 0.72209 0.20000
H 	H 	0.92923 0.96495 0.53411 0.18000
O 	O 	0.99490 0.00454 0.62808 -0.30000
C 	C 	0.99110 0.05692 0.83598 -0.02900
C 	C 	0.06126 0.09855 0.87155 -0.03100
C 	C 	0.06594 0.04470 0.91209 0.03800
H 	H 	0.12008 0.07677 0.93918 -0.04800
C 	C 	0.99875 0.95211 0.92021 -0.15800
C 	C 	0.92859 0.91048 0.88465 0.05900
C 	C 	0.92390 0.96433 0.84411 -0.08500
H 	H 	0.86974 0.93227 0.81703 -0.03100
C 	C 	0.86176 0.80933 0.88761 -0.00500
C 	C 	0.77086 0.78762 0.89898 -0.04700
C 	C 	0.70688 0.69183 0.89593 -0.02700
C 	C 	0.73329 0.61742 0.88217 -0.03500
C 	C 	0.82364 0.63865 0.87069 -0.02300
C 	C 	0.88778 0.73431 0.87291 -0.02900
C 	C 	0.12810 0.19969 0.86857 0.02700
C 	C 	0.10210 0.27472 0.88327 -0.04800
C 	C 	0.16625 0.37037 0.88551 -0.01800
C 	C 	0.25660 0.39159 0.87403 -0.04300
C 	C 	0.28300 0.31716 0.86027 -0.01800
C 	C 	0.21900 0.22139 0.85721 -0.06200
H 	H 	0.14594 0.42806 0.89629 0.02600
H 	H 	0.30611 0.46570 0.87545 0.03600
H 	H 	0.35297 0.33372 0.85140 0.03000
H 	H 	0.23996 0.16410 0.84655 0.04500
H 	H 	0.03244 0.25883 0.89362 0.04600
H 	H 	0.74988 0.84490 0.90964 0.03000
H 	H 	0.63690 0.67526 0.90482 0.02900
H 	H 	0.95745 0.75022 0.86256 0.05900
H 	H 	0.84397 0.58098 0.85990 0.03700
H 	H 	0.68379 0.54331 0.88077 0.03700
C 	C 	0.99110 0.05692 0.33598 -0.02700
C 	C 	0.06126 0.09855 0.37155 -0.03300
C 	C 	0.06594 0.04470 0.41209 0.03700
H 	H 	0.12008 0.07677 0.43918 -0.04900
C 	C 	0.99875 0.95211 0.42021 -0.15700
C 	C 	0.92858 0.91048 0.38465 0.05900
C 	C 	0.92390 0.96433 0.34411 -0.08600
H 	H 	0.86974 0.93227 0.31703 -0.03100
C 	C 	0.86176 0.80933 0.38761 -0.00500
C 	C 	0.77086 0.78762 0.39898 -0.04700
C 	C 	0.70688 0.69183 0.39593 -0.02800
C 	C 	0.73329 0.61742 0.38217 -0.03500
C 	C 	0.82364 0.63865 0.37069 -0.02400
C 	C 	0.88778 0.73431 0.37291 -0.02900
C 	C 	0.12810 0.19969 0.36857 0.02700
C 	C 	0.10210 0.27472 0.38327 -0.04900
C 	C 	0.16625 0.37037 0.38551 -0.01800
C 	C 	0.25660 0.39159 0.37403 -0.04300
C 	C 	0.28300 0.31716 0.36027 -0.01800
C 	C 	0.21900 0.22139 0.35721 -0.06300
H 	H 	0.14594 0.42806 0.39629 0.02500
H 	H 	0.30611 0.46570 0.37544 0.03600
H 	H 	0.35297 0.33372 0.35140 0.03000
H 	H 	0.23996 0.16410 0.34655 0.04500
H 	H 	0.03244 0.25883 0.39361 0.04500
H 	H 	0.74988 0.84490 0.40964 0.02900
H 	H 	0.63690 0.67526 0.40482 0.02900
H 	H 	0.95745 0.75022 0.36256 0.05900
H 	H 	0.84397 0.58098 0.35990 0.03700
H 	H 	0.68379 0.54331 0.38077 0.03600
C 	C 	0.31579 0.43093 0.65395 0.01400
H 	H 	0.36549 0.43067 0.61840 0.02800
C 	C 	0.33067 0.44369 0.71714 -0.05100
H 	H 	0.39278 0.45480 0.73439 0.03800
C 	C 	0.27242 0.50157 0.66461 -0.04800
H 	H 	0.28714 0.56106 0.63841 0.03600
C 	C 	0.28704 0.51372 0.72746 0.01500
C 	C 	0.22330 0.34779 0.66569 -0.10400
C 	C 	0.17983 0.41755 0.67605 -0.00600
H 	H 	0.11753 0.40607 0.65886 -0.01100
C 	C 	0.19442 0.43002 0.73921 -0.06000
H 	H 	0.14420 0.42888 0.77466 0.02900
C 	C 	0.23763 0.35877 0.72829 0.00400
H 	H 	0.22154 0.29738 0.75305 0.02800
C 	C 	0.61594 0.82366 0.73747 -0.05600
H 	H 	0.61566 0.75398 0.74317 0.04000
C 	C 	0.66696 0.91969 0.77258 -0.00500
H 	H 	0.70853 0.92952 0.80707 -0.00100
C 	C 	0.65023 0.87608 0.68296 0.00300
H 	H 	0.67762 0.84981 0.64317 0.02500
C 	C 	0.70016 0.97133 0.71825 -0.12800
C 	C 	0.53426 0.84573 0.74307 0.01000
C 	C 	0.56790 0.89767 0.68875 -0.04100
H 	H 	0.52662 0.88794 0.65411 0.02700
C 	C 	0.61885 0.99367 0.72384 -0.03900
H 	H 	0.62065 0.06410 0.71815 0.06600
C 	C 	0.58417 0.94109 0.77845 -0.03900
H 	H 	0.55631 0.96734 0.81805 0.02300
C 	C 	0.12242 0.74979 0.78841 -0.04900
H 	H 	0.10221 0.71972 0.82998 0.03000
C 	C 	0.07531 0.70214 0.73405 -0.00600
H 	H 	0.01510 0.63259 0.73021 0.01300
C 	C 	0.12889 0.84791 0.77638 -0.00000
H 	H 	0.11229 0.89846 0.80762 0.01600
C 	C 	0.08261 0.79974 0.72211 -0.08000
C 	C 	0.21304 0.77333 0.75447 0.01100
C 	C 	0.22052 0.87136 0.74256 -0.04800
H 	H 	0.28010 0.94145 0.74635 0.02400
C 	C 	0.17305 0.82365 0.68808 -0.00800
H 	H 	0.19344 0.85386 0.64661 0.02200
C 	C 	0.16652 0.72558 0.70012 -0.05000
H 	H 	0.18267 0.67485 0.66878 0.03100
C 	C 	0.27242 0.50157 0.16461 -0.04800
H 	H 	0.28714 0.56106 0.13841 0.03600
C 	C 	0.17983 0.41755 0.17605 -0.00600
H 	H 	0.11753 0.40607 0.15886 -0.01200
C 	C 	0.31579 0.43093 0.15395 0.01400
H 	H 	0.36549 0.43067 0.11840 0.02800
C 	C 	0.22331 0.34779 0.16569 -0.10500
C 	C 	0.28704 0.51372 0.22746 0.01500
C 	C 	0.33067 0.44369 0.21714 -0.05100
H 	H 	0.39278 0.45480 0.23439 0.03800
C 	C 	0.23763 0.35877 0.22829 0.00400
H 	H 	0.22154 0.29738 0.25305 0.02800
C 	C 	0.19442 0.43002 0.23921 -0.06000
H 	H 	0.14420 0.42888 0.27466 0.02900
C 	C 	0.56790 0.89767 0.18875 -0.04100
H 	H 	0.52662 0.88794 0.15411 0.02700
C 	C 	0.65023 0.87608 0.18296 0.00300
H 	H 	0.67762 0.84981 0.14317 0.02400
C 	C 	0.61885 0.99367 0.22384 -0.03900
H 	H 	0.62065 0.06410 0.21815 0.06700
C 	C 	0.70016 0.97133 0.21825 -0.12800
C 	C 	0.53426 0.84573 0.24307 0.01000
C 	C 	0.58417 0.94109 0.27845 -0.03900
H 	H 	0.55631 0.96733 0.31805 0.02200
C 	C 	0.66696 0.91969 0.27258 -0.00500
H 	H 	0.70853 0.92952 0.30707 -0.00100
C 	C 	0.61594 0.82366 0.23747 -0.05600
H 	H 	0.61566 0.75398 0.24317 0.04000
C 	C 	0.07531 0.70214 0.23405 -0.00600
H 	H 	0.01510 0.63259 0.23021 0.01200
C 	C 	0.12242 0.74979 0.28841 -0.04900
H 	H 	0.10221 0.71972 0.32998 0.02900
C 	C 	0.16652 0.72557 0.20012 -0.05000
H 	H 	0.18267 0.67485 0.16878 0.03100
C 	C 	0.21304 0.77333 0.25447 0.01100
C 	C 	0.08261 0.79974 0.22211 -0.07900
C 	C 	0.17305 0.82365 0.18807 -0.00800
H 	H 	0.19344 0.85386 0.14661 0.02100
C 	C 	0.22052 0.87136 0.24256 -0.04800
H 	H 	0.28010 0.94145 0.24635 0.02400
C 	C 	0.12889 0.84791 0.27638 -0.00100
H 	H 	0.11229 0.89846 0.30762 0.01500
C 	C 	0.81679 0.18556 0.56789 0.00200
H 	H 	0.79643 0.15542 0.60938 0.03200
C 	C 	0.76925 0.13780 0.51344 -0.04500
H 	H 	0.70964 0.06773 0.50970 0.04700
C 	C 	0.82337 0.28364 0.55581 -0.05200
H 	H 	0.80728 0.33442 0.58714 0.03800
C 	C 	0.77676 0.23583 0.50150 0.01300
C 	C 	0.90720 0.20937 0.53383 -0.08700
C 	C 	0.91454 0.30697 0.52185 0.00500
H 	H 	0.97478 0.37651 0.52565 0.02900
C 	C 	0.86735 0.25927 0.46752 -0.04600
H 	H 	0.88753 0.28928 0.42593 0.04600
C 	C 	0.86084 0.16115 0.47959 0.01500
H 	H 	0.87739 0.11054 0.44836 0.04300
C 	C 	0.67415 0.57837 0.60207 0.01300
H 	H 	0.62438 0.57867 0.63755 0.02900
C 	C 	0.71737 0.50760 0.59148 -0.04700
H 	H 	0.70246 0.44805 0.61768 0.04000
C 	C 	0.65950 0.56572 0.53885 -0.05100
H 	H 	0.59750 0.55475 0.52150 0.03600
C 	C 	0.70298 0.49556 0.52861 0.01500
C 	C 	0.76674 0.66141 0.59044 -0.10200
C 	C 	0.75265 0.65055 0.52781 0.00400
H 	H 	0.76894 0.71200 0.50305 0.02800
C 	C 	0.79571 0.57916 0.51697 -0.05700
H 	H 	0.84601 0.58026 0.48158 0.03600
C 	C 	0.81007 0.59152 0.58016 -0.00400
H 	H 	0.87226 0.60286 0.59744 0.00200
C 	C 	0.37391 0.18590 0.51885 -0.05200
H 	H 	0.37426 0.25567 0.51328 0.04000
C 	C 	0.33957 0.13322 0.57326 -0.00800
H 	H 	0.31222 0.15935 0.61312 0.03900
C 	C 	0.32281 0.09004 0.48361 -0.01500
H 	H 	0.28126 0.08044 0.44915 0.01900
C 	C 	0.28957 0.03815 0.53785 -0.04700
C 	C 	0.45553 0.16370 0.51311 0.01700
C 	C 	0.40554 0.06851 0.47762 -0.05200
H 	H 	0.43335 0.04238 0.43795 0.05100
C 	C 	0.37083 0.01568 0.53213 0.05600
H 	H 	0.36896 0.94517 0.53768 -0.01100
C 	C 	0.42185 0.11151 0.56734 -0.05500
H 	H 	0.46312 0.12101 0.60194 0.04800
C 	C 	0.82337 0.28364 0.05581 -0.05000
H 	H 	0.80728 0.33442 0.08714 0.03700
C 	C 	0.91454 0.30697 0.02185 0.00100
H 	H 	0.97478 0.37651 0.02565 0.02900
C 	C 	0.81679 0.18556 0.06789 0.00300
H 	H 	0.79643 0.15542 0.10938 0.03200
C 	C 	0.90720 0.20937 0.03382 -0.09000
C 	C 	0.77676 0.23583 0.00150 0.00500
C 	C 	0.76925 0.13780 0.01344 -0.04700
H 	H 	0.70964 0.06773 0.00969 0.04600
C 	C 	0.86084 0.16115 0.97959 0.01900
H 	H 	0.87739 0.11054 0.94836 0.04200
C 	C 	0.86735 0.25927 0.96752 -0.04000
H 	H 	0.88753 0.28928 0.92593 0.04400
C 	C 	0.81007 0.59152 0.08016 -0.00300
H 	H 	0.87226 0.60286 0.09744 0.00200
C 	C 	0.79571 0.57916 0.01697 -0.06100
H 	H 	0.84601 0.58026 0.98158 0.04000
C 	C 	0.71737 0.50760 0.09148 -0.04500
H 	H 	0.70246 0.44805 0.11768 0.03900
C 	C 	0.70298 0.49556 0.02861 0.01000
C 	C 	0.76674 0.66141 0.09044 -0.10200
C 	C 	0.67415 0.57837 0.10207 0.01200
H 	H 	0.62438 0.57867 0.13755 0.02900
C 	C 	0.65950 0.56572 0.03885 -0.05000
H 	H 	0.59750 0.55475 0.02150 0.03500
C 	C 	0.75265 0.65055 0.02781 0.00400
H 	H 	0.76894 0.71200 0.00305 0.02600
C 	C 	0.37391 0.18590 0.01885 -0.05600
H 	H 	0.37426 0.25567 0.01328 0.04000
C 	C 	0.33957 0.13322 0.07326 -0.00600
H 	H 	0.31222 0.15935 0.11312 0.03900
C 	C 	0.32281 0.09004 0.98361 -0.00800
H 	H 	0.28126 0.08044 0.94915 0.01900
C 	C 	0.28957 0.03815 0.03785 -0.05100
C 	C 	0.45553 0.16370 0.01311 0.01400
C 	C 	0.40554 0.06851 0.97762 -0.04700
H 	H 	0.43335 0.04238 0.93795 0.05100
C 	C 	0.37083 0.01568 0.03213 0.05200
H 	H 	0.36896 0.94517 0.03768 -0.01100
C 	C 	0.42185 0.11151 0.06734 -0.05400
H 	H 	0.46312 0.12101 0.10194 0.04800
