data_crystal

_cell_length_a 13.25911
_cell_length_b 13.09193
_cell_length_c 33.35391
_cell_angle_alpha 91.04750
_cell_angle_beta  91.13911
_cell_angle_gamma 113.10075

_symmetry_space_group_name_	'P 1'
_symmetry_space_group_name_H-M	'P 1'

loop_
_symmetry_equiv_pos_as_xyz
  x,y,z

loop_
_atom_site_label
_atom_site_type_symbol
_atom_site_fract_x
_atom_site_fract_y
_atom_site_fract_z
_atom_site_charge
O 	O 	0.48080 0.17033 0.88465 -0.33000
O 	O 	0.50749 0.34427 0.94308 -0.30100
C 	C 	0.47885 0.11305 0.85120 0.32600
O 	O 	0.56643 0.09809 0.83844 -0.39300
O 	O 	0.42032 0.08903 0.62065 -0.36600
O 	O 	0.46264 0.41413 0.62767 -0.32700
Ni	Ni	0.45966 0.25475 0.62633 1.08600
O 	O 	0.45021 0.24589 0.68680 -0.40300
C 	C 	0.45836 0.16142 0.70512 0.32000
C 	C 	0.48822 0.05287 0.60332 0.31600
C 	C 	0.06300 0.99091 0.74366 -0.05100
H 	H 	0.05024 0.99320 0.71068 0.06400
C 	C 	0.09591 0.98267 0.82231 -0.03700
H 	H 	0.10980 0.97972 0.85520 0.08400
C 	C 	0.01648 0.05937 0.76964 -0.00700
C 	C 	0.01125 0.87466 0.76102 -0.00400
C 	C 	0.18454 0.03370 0.75743 0.01400
C 	C 	0.02693 0.87004 0.80171 -0.02900
C 	C 	0.20116 0.02861 0.79820 0.01300
Ni	Ni	0.29036 0.65418 0.40669 1.10500
O 	O 	0.38137 0.81422 0.42699 -0.69200
Ni	Ni	0.32116 0.90062 0.39114 1.10400
O 	O 	0.36541 0.58775 0.44664 -0.31400
O 	O 	0.18571 0.65529 0.45065 -0.37900
Ni	Ni	0.54000 0.86528 0.42173 1.08900
O 	O 	0.09398 0.54140 0.33858 -0.41800
O 	O 	0.51998 0.83352 0.36158 -0.40600
O 	O 	0.40727 0.05349 0.41702 -0.29700
O 	O 	0.24515 0.74304 0.36749 -0.70000
O 	O 	0.18919 0.49427 0.38897 -0.33700
O 	O 	0.21802 0.96088 0.36164 -0.36200
O 	O 	0.07049 0.82084 0.38664 -0.39300
Ni	Ni	0.08465 0.67898 0.36356 1.07900
H 	H 	0.36531 0.82538 0.45522 0.17700
H 	H 	0.27503 0.73688 0.34101 0.16000
C 	C 	0.50936 0.90875 0.33830 0.31300
O 	O 	0.02357 0.59307 0.41476 -0.32700
C 	C 	0.46819 0.64114 0.45862 0.29300
C 	C 	0.50519 0.07106 0.43231 0.31000
C 	C 	0.07948 0.59844 0.44833 0.32900
C 	C 	0.11132 0.91422 0.36734 0.31100
C 	C 	0.11298 0.46610 0.35981 0.35000
O 	O 	0.42881 0.94323 0.34377 -0.36500
Ni	Ni	0.33440 0.72713 0.14325 1.10500
O 	O 	0.17494 0.63897 0.12359 -0.69000
Ni	Ni	0.09513 0.70574 0.15988 1.10000
O 	O 	0.39762 0.64381 0.10570 -0.31300
O 	O 	0.27112 0.47227 0.11928 -0.35200
O 	O 	0.33952 0.82642 0.09644 -0.35000
Ni	Ni	0.11829 0.47734 0.12710 1.11300
O 	O 	0.45524 0.95503 0.20785 -0.39300
O 	O 	0.14163 0.49094 0.18777 -0.41100
O 	O 	0.25317 0.78456 0.18065 -0.70400
O 	O 	0.49109 0.82770 0.16215 -0.32400
O 	O 	0.04343 0.81423 0.18856 -0.38500
O 	O 	0.17316 0.95786 0.15714 -0.39300
Ni	Ni	0.31704 0.94765 0.17876 1.07900
H 	H 	0.16431 0.65743 0.09560 0.20900
H 	H 	0.26160 0.76125 0.20815 0.15600
C 	C 	0.07109 0.50954 0.21069 0.32000
O 	O 	0.39967 0.99807 0.12598 -0.32800
C 	C 	0.34098 0.54000 0.09472 0.29500
C 	C 	0.40393 0.93132 0.09665 0.32300
C 	C 	0.08354 0.91847 0.17818 0.32400
C 	C 	0.51781 0.89422 0.19757 0.38000
O 	O 	0.05766 0.60406 0.20893 -0.38100
C 	C 	0.00703 0.42430 0.23903 -0.15700
C 	C 	0.02289 0.32482 0.24176 -0.01600
H 	H 	0.08713 0.31467 0.22446 0.05100
C 	C 	0.03744 0.99363 0.19474 -0.19400
C 	C 	0.06037 0.02881 0.23496 0.01200
H 	H 	0.12398 0.01146 0.25086 0.02100
C 	C 	0.05665 0.34844 0.34795 -0.14600
H 	H 	0.09500 0.29089 0.35486 0.11700
C 	C 	0.06815 0.04242 0.32338 0.02300
C 	C 	0.03515 0.96057 0.34982 -0.17700
H 	H 	0.15493 0.08584 0.31780 0.05200
C 	C 	0.45779 0.13169 0.53905 0.05500
C 	C 	0.49862 0.06146 0.55922 -0.02900
C 	C 	0.52410 0.09055 0.47608 -0.00800
C 	C 	0.47484 0.15097 0.49803 -0.09500
C 	C 	0.44018 0.23594 0.47820 0.78400
H 	H 	0.41477 0.17349 0.55554 0.01600
F 	F 	0.50794 0.28543 0.44699 -0.38900
F 	F 	0.44593 0.31905 0.50551 -0.44800
F 	F 	0.33321 0.18466 0.46365 -0.42300
C 	C 	0.02004 0.56027 0.48604 -0.02400
C 	C 	0.50192 0.62172 0.49938 0.03100
C 	C 	0.58834 0.58517 0.50599 -0.05600
C 	C 	0.60483 0.55099 0.54456 0.07600
C 	C 	0.53435 0.54833 0.57574 0.01600
H 	H 	0.67023 0.52252 0.55008 0.08000
C 	C 	0.66380 0.58379 0.47245 0.78800
F 	F 	0.60307 0.52624 0.43907 -0.39000
C 	C 	0.37262 0.09584 0.73278 -0.13000
C 	C 	0.26790 0.09911 0.73183 0.01500
H 	H 	0.38763 0.03476 0.75078 0.09900
H 	H 	0.24590 0.14129 0.70751 0.05300
H 	H 	0.04885 0.69502 0.74346 0.07300
C 	C 	0.00451 0.80342 0.00504 0.73000
F 	F 	0.08034 0.83242 0.97509 -0.38900
F 	F 	0.04935 0.87765 0.03701 -0.43200
C 	C 	0.39371 0.96545 0.02393 0.07400
C 	C 	0.45882 0.97883 0.05894 0.00700
C 	C 	0.44168 0.99003 0.98614 -0.08900
C 	C 	0.36889 0.95470 0.94858 0.77900
H 	H 	0.30508 0.93086 0.02590 0.11600
F 	F 	0.28021 0.85641 0.95469 -0.38900
F 	F 	0.42404 0.93588 0.91640 -0.44800
F 	F 	0.33084 0.03597 0.93930 -0.41600
C 	C 	0.38147 0.49198 0.98605 0.07200
C 	C 	0.47733 0.47184 0.98901 0.01100
C 	C 	0.46522 0.46953 0.06163 0.06900
C 	C 	0.37286 0.49554 0.05886 0.01000
C 	C 	0.32780 0.50303 0.02073 -0.09700
C 	C 	0.22672 0.52967 0.01703 0.77800
H 	H 	0.34872 0.49891 0.95666 0.08900
F 	F 	0.17933 0.50405 0.97885 -0.43900
F 	F 	0.25533 0.64169 0.02508 -0.45000
F 	F 	0.14948 0.46864 0.04388 -0.50200
H 	H 	0.09495 0.26622 0.83554 0.10700
C 	C 	0.37241 0.04683 0.83195 -0.10100
C 	C 	0.30649 0.09542 0.81898 0.01900
H 	H 	0.35066 0.95879 0.82578 0.10600
H 	H 	0.33004 0.18435 0.82347 0.04400
H 	H 	0.03804 0.76318 0.84848 0.04600
C 	C 	0.43617 0.62562 0.53142 0.08000
F 	F 	0.32830 0.66794 0.59508 -0.37900
F 	F 	0.30155 0.49304 0.61002 -0.42600
O 	O 	0.57073 0.05083 0.62488 -0.28700
O 	O 	0.53982 0.70975 0.43444 -0.31200
O 	O 	0.56511 0.02715 0.41329 -0.35700
C 	C 	0.45291 0.59160 0.56984 -0.05900
H 	H 	0.37010 0.65329 0.52605 0.09000
H 	H 	0.49694 0.46089 0.09101 0.09200
C 	C 	0.38066 0.59769 0.60383 0.78700
C 	C 	0.52385 0.44743 0.95236 0.29000
O 	O 	0.54832 0.14148 0.70290 -0.36300
C 	C 	0.55707 0.00888 0.53750 -0.08700
C 	C 	0.57622 0.03164 0.49683 0.05200
C 	C 	0.57480 0.02005 0.05607 -0.05200
C 	C 	0.55695 0.04470 0.98409 0.04400
C 	C 	0.52239 0.46494 0.02720 -0.09800
C 	C 	0.54587 0.49775 0.61388 0.29100
H 	H 	0.57460 0.90197 0.21039 -0.17200
C 	C 	0.60808 0.11232 0.94911 0.31700
C 	C 	0.62226 0.05045 0.01828 0.06400
F 	F 	0.09767 0.60583 0.62206 -0.42000
F 	F 	0.62258 0.07486 0.12472 -0.42700
Ni	Ni	0.61138 0.30823 0.90620 1.10400
O 	O 	0.57853 0.52796 0.92839 -0.35900
C 	C 	0.05218 0.63188 0.51993 0.09100
H 	H 	0.11167 0.71613 0.51678 0.08400
F 	F 	0.15628 0.75916 0.58591 -0.40900
O 	O 	0.62129 0.30177 0.62765 -0.69300
H 	H 	0.59480 0.04193 0.29577 0.11000
F 	F 	0.52494 0.86027 0.58274 -0.40300
F 	F 	0.63132 0.91532 0.10169 -0.43600
O 	O 	0.64034 0.06714 0.91909 -0.32400
H 	H 	0.64805 0.30729 0.59994 0.16900
C 	C 	0.60103 0.97381 0.31234 -0.15100
F 	F 	0.44272 0.63782 0.63882 -0.40600
O 	O 	0.63845 0.21977 0.95183 -0.31500
C 	C 	0.64730 0.02275 0.09221 0.78400
C 	C 	0.63254 0.91523 0.22445 0.16200
H 	H 	0.62585 0.99694 0.48058 0.02900
C 	C 	0.06463 0.66623 0.59505 0.77700
Ni	Ni	0.66229 0.18904 0.65807 1.10500
C 	C 	0.60081 0.92997 0.55722 0.76900
F 	F 	0.62444 0.35340 0.01837 -0.43000
C 	C 	0.63322 0.45743 0.03135 0.78500
Ni	Ni	0.71386 0.14853 0.86800 1.07800
H 	H 	0.71352 0.32562 0.84297 0.15300
O 	O 	0.63745 0.54142 0.63522 -0.31100
F 	F 	0.62300 0.86369 0.52887 -0.45400
F 	F 	0.69734 0.99037 0.57841 -0.42700
F 	F 	0.67212 0.47436 0.07076 -0.42100
C 	C 	0.03580 0.05715 0.81015 -0.02600
C 	C 	0.01232 0.59439 0.55796 -0.11400
C 	C 	0.69465 0.95601 0.31144 0.02400
H 	H 	0.70992 0.07740 0.01531 0.13900
H 	H 	0.70297 0.89058 0.32901 0.04600
F 	F 	0.70867 0.53784 0.00872 -0.51400
F 	F 	0.72746 0.69161 0.46237 -0.42000
F 	F 	0.73334 0.53279 0.48376 -0.41400
O 	O 	0.72722 0.30336 0.87008 -0.70000
Ni	Ni	0.70818 0.44388 0.66144 1.09900
C 	C 	0.71485 0.01519 0.22454 -0.12500
H 	H 	0.71774 0.07113 0.20043 0.13500
C 	C 	0.02045 0.21015 0.84917 -0.21200
O 	O 	0.73385 0.09725 0.68789 -0.32800
H 	H 	0.73759 0.32961 0.71802 0.15500
O 	O 	0.74784 0.43739 0.92912 -0.68900
Ni	Ni	0.74833 0.58696 0.92687 1.11400
O 	O 	0.74575 0.58397 0.86609 -0.40600
H 	H 	0.76064 0.42238 0.95725 0.23100
O 	O 	0.75380 0.33286 0.68911 -0.70500
F 	F 	0.75733 0.07995 0.08469 -0.38600
F 	F 	0.78108 0.32393 0.08139 -0.37800
C 	C 	0.79344 0.03402 0.29110 -0.01800
O 	O 	0.80162 0.57713 0.69674 -0.35400
C 	C 	0.80214 0.04202 0.24997 0.07800
F 	F 	0.81442 0.27829 0.01974 -0.43000
O 	O 	0.82238 0.50396 0.61734 -0.31100
H 	H 	0.82411 0.33691 0.52968 0.09200
H 	H 	0.81999 0.71296 0.80095 0.09200
C 	C 	0.83568 0.60008 0.84685 0.32300
F 	F 	0.83719 0.26330 0.46532 -0.42400
C 	C 	0.83954 0.13620 0.69651 0.30200
F 	F 	0.85017 0.40331 0.42541 -0.40100
H 	H 	0.86236 0.98184 0.70981 0.10500
C 	C 	0.86231 0.34248 0.05368 0.79700
Ni	Ni	0.86687 0.42156 0.89604 1.10700
O 	O 	0.87057 0.19118 0.89239 -0.38900
H 	H 	0.87176 0.78067 0.71960 0.06800
H 	H 	0.90853 0.04354 0.85406 0.02600
H 	H 	0.95273 0.18810 0.76753 0.01600
C 	C 	0.98190 0.10085 0.84023 0.08500
F 	F 	0.99740 0.36123 0.43776 -0.42600
H 	H 	0.94818 0.91900 0.35555 0.11900
C 	C 	0.97240 0.69240 0.73007 -0.08600
C 	C 	0.97634 0.68480 0.01787 -0.04700
H 	H 	0.94718 0.72171 0.07862 0.09100
C 	C 	0.90559 0.36878 0.45415 0.77400
C 	C 	0.93928 0.45069 0.48964 -0.02200
C 	C 	0.94839 0.65774 0.05780 0.05500
C 	C 	0.89043 0.41760 0.52701 0.04700
O 	O 	0.97089 0.36196 0.86867 -0.36000
O 	O 	0.88255 0.52784 0.84899 -0.36800
O 	O 	0.91470 0.66600 0.93084 -0.32300
O 	O 	0.99721 0.54561 0.92344 -0.30700
C 	C 	0.95551 0.25725 0.87275 0.34600
C 	C 	0.97496 0.61622 0.94640 0.32300
O 	O 	0.90744 0.21848 0.67625 -0.36600
Ni	Ni	0.91140 0.37825 0.68034 1.08400
O 	O 	0.89519 0.37271 0.61910 -0.35000
C 	C 	0.87482 0.44925 0.59990 0.28200
C 	C 	0.90532 0.59596 0.70478 0.30100
O 	O 	0.95562 0.54586 0.68327 -0.32600
O 	O 	0.93956 0.61764 0.13906 -0.32600
C 	C 	0.92576 0.53250 0.11527 0.30800
O 	O 	0.95787 0.45584 0.12884 -0.30400
C 	C 	0.91648 0.11761 0.23613 -0.07700
H 	H 	0.92219 0.12740 0.20316 0.08500
C 	C 	0.89982 0.10226 0.31521 -0.02400
H 	H 	0.89253 0.09632 0.34833 0.07900
C 	C 	0.99358 0.07031 0.25658 0.02800
C 	C 	0.94411 0.22927 0.25833 0.04700
C 	C 	0.98628 0.06431 0.29751 0.00400
C 	C 	0.93180 0.22016 0.29914 -0.01800
H 	H 	0.93985 0.43429 0.25435 0.11400
H 	H 	0.97211 0.00445 0.17779 0.14700
C 	C 	0.95964 0.31280 0.32485 0.07800
H 	H 	0.91867 0.36926 0.32040 0.05700
C 	C 	0.92728 0.48758 0.56117 0.05700
F 	F 	0.99041 0.70205 0.61272 -0.40700
C 	C 	0.95182 0.11248 0.75323 0.02300
C 	C 	0.88362 0.06775 0.71935 -0.12600
C 	C 	0.94295 0.77822 0.73558 0.03200
C 	C 	0.94872 0.49205 0.00397 0.07700
C 	C 	0.97204 0.59958 0.99020 0.00800
C 	C 	0.92512 0.54980 0.07141 0.01400
C 	C 	0.91442 0.46404 0.04319 -0.07400
H 	H 	0.94924 0.42767 0.98318 0.08300
F 	F 	0.94151 0.30854 0.06889 -0.42100
F 	F 	0.91013 0.81428 0.99142 -0.41100
C 	C 	0.87825 0.69396 0.81952 -0.15500
C 	C 	0.98785 0.77078 0.82347 0.07200
