data_crystal

_cell_length_a 27.98912
_cell_length_b 29.40584
_cell_length_c 15.33995
_cell_angle_alpha 98.66552
_cell_angle_beta  81.40790
_cell_angle_gamma 113.94007

_symmetry_space_group_name_	'P 1'
_symmetry_space_group_name_H-M	'P 1'

loop_
_symmetry_equiv_pos_as_xyz
  x,y,z

loop_
_atom_site_label
_atom_site_type_symbol
_atom_site_fract_x
_atom_site_fract_y
_atom_site_fract_z
_atom_site_charge
C 	C 	0.02578 0.19584 0.87577 0.05500
C 	C 	0.02647 0.18867 0.39151 0.09800
C 	C 	0.02578 0.69584 0.87577 0.05300
C 	C 	0.02647 0.68867 0.39151 0.09800
C 	C 	0.01030 0.19499 0.57687 -0.02900
C 	C 	0.01030 0.69499 0.57687 -0.03000
H 	H 	0.00440 0.19931 0.64862 0.07000
H 	H 	0.00440 0.69931 0.64862 0.06900
C 	C 	0.00971 0.14652 0.90062 -0.10200
C 	C 	0.00971 0.64652 0.90062 -0.10300
C 	C 	0.03807 0.61290 0.86081 0.79100
C 	C 	0.03807 0.11290 0.86081 0.79100
H 	H 	0.03275 0.18627 0.31982 0.08100
H 	H 	0.03275 0.68627 0.31982 0.08000
F 	F 	0.00478 0.06302 0.86326 -0.39100
F 	F 	0.00478 0.56302 0.86326 -0.39500
F 	F 	0.05617 0.12070 0.77311 -0.41500
F 	F 	0.05617 0.62070 0.77311 -0.41700
C 	C 	0.05869 0.19616 0.53428 0.05400
C 	C 	0.05869 0.69616 0.53428 0.05300
C 	C 	0.06498 0.18831 0.44059 -0.11500
C 	C 	0.06498 0.68831 0.44059 -0.11600
F 	F 	0.07967 0.12235 0.90856 -0.36800
F 	F 	0.07967 0.62235 0.90856 -0.36900
C 	C 	0.08250 0.22940 0.86025 0.26000
C 	C 	0.08250 0.72940 0.86025 0.26000
O 	O 	0.09786 0.27864 0.87353 -0.35500
O 	O 	0.09786 0.77864 0.87353 -0.35600
O 	O 	0.10481 0.20068 0.65874 -0.30400
C 	C 	0.10508 0.21913 0.58451 0.27600
F 	F 	0.10446 0.15636 0.31050 -0.44800
O 	O 	0.10481 0.70068 0.65874 -0.30400
C 	C 	0.10508 0.71913 0.58451 0.27600
F 	F 	0.10446 0.65636 0.31050 -0.45000
H 	H 	0.10679 0.48117 0.63655 0.09600
H 	H 	0.10679 0.98117 0.63655 0.09500
C 	C 	0.11429 0.18336 0.39259 0.78000
C 	C 	0.11429 0.68336 0.39259 0.78000
O 	O 	0.11788 0.21007 0.84490 -0.28400
O 	O 	0.11788 0.71007 0.84490 -0.28400
O 	O 	0.12371 0.36060 0.59961 -0.35000
O 	O 	0.12371 0.86060 0.59961 -0.35000
H 	H 	0.12529 0.36999 0.79822 0.18400
H 	H 	0.12529 0.86999 0.79822 0.18200
F 	F 	0.12871 0.54531 0.87553 -0.37900
F 	F 	0.12871 0.04531 0.87553 -0.37300
F 	F 	0.13266 0.15864 0.44072 -0.44900
F 	F 	0.13266 0.65864 0.44072 -0.45000
C 	C 	0.13398 0.48191 0.57799 0.07900
C 	C 	0.13397 0.98191 0.57799 0.05700
O 	O 	0.13901 0.26394 0.56707 -0.32900
O 	O 	0.13901 0.76394 0.56707 -0.32900
H 	H 	0.99572 0.24929 0.85045 0.06100
H 	H 	0.99573 0.74929 0.85045 0.06100
Ni	Ni	0.15274 0.32279 0.66271 1.10400
Ni	Ni	0.16919 0.22196 0.73391 1.11900
F 	F 	0.15256 0.23042 0.38062 -0.43600
F 	F 	0.14718 0.60608 0.98784 -0.37700
Ni	Ni	0.15274 0.82279 0.66271 1.10400
Ni	Ni	0.16919 0.72196 0.73391 1.11900
F 	F 	0.15256 0.73042 0.38062 -0.43600
F 	F 	0.14718 0.10608 0.98784 -0.37400
Ni	Ni	0.17654 0.32502 0.85312 1.10800
O 	O 	0.15839 0.36552 0.77639 -0.71100
O 	O 	0.17513 0.37562 0.96043 -0.33500
C 	C 	0.14949 0.41025 0.60294 0.28800
C 	C 	0.13936 0.43759 0.54141 -0.07000
H 	H 	0.16429 0.40201 0.42052 0.06500
Ni	Ni	0.17654 0.82502 0.85312 1.10800
O 	O 	0.15839 0.86552 0.77639 -0.71100
O 	O 	0.17512 0.87562 0.96043 -0.33500
C 	C 	0.14949 0.91025 0.60294 0.28600
C 	C 	0.13936 0.93759 0.54141 -0.06800
H 	H 	0.16429 0.90200 0.42052 0.06300
C 	C 	0.16558 0.57323 0.93416 0.78500
C 	C 	0.16558 0.07323 0.93416 0.77700
O 	O 	0.18821 0.29313 0.73165 -0.70500
O 	O 	0.19664 0.28325 0.92361 -0.33500
C 	C 	0.18614 0.51886 0.12949 -0.02100
H 	H 	0.19040 0.52844 0.19968 0.00500
O 	O 	0.18821 0.79314 0.73165 -0.70500
O 	O 	0.19664 0.78325 0.92361 -0.33600
C 	C 	0.18614 0.01886 0.12949 0.01300
H 	H 	0.19040 0.02844 0.19968 0.00100
C 	C 	0.17450 0.53915 0.98866 -0.07900
C 	C 	0.17450 0.03915 0.98866 -0.04700
C 	C 	0.16518 0.43709 0.45591 0.03100
C 	C 	0.16518 0.93709 0.45591 0.03400
C 	C 	0.18586 0.55436 0.07773 -0.00600
C 	C 	0.18586 0.05436 0.07773 -0.02400
C 	C 	0.18755 0.47331 0.08884 -0.00900
H 	H 	0.19305 0.44834 0.12793 0.05700
C 	C 	0.18755 0.97331 0.08884 -0.04300
H 	H 	0.19305 0.94834 0.12793 0.06200
F 	F 	0.14856 0.59774 0.57584 -0.41200
F 	F 	0.14856 0.09774 0.57584 -0.41000
H 	H 	0.23939 0.29852 0.06439 0.09300
H 	H 	0.23939 0.79852 0.06439 0.09300
C 	C 	0.17650 0.49366 0.94798 0.07900
C 	C 	0.17650 0.99366 0.94798 0.04400
O 	O 	0.19653 0.12956 0.17759 -0.31400
O 	O 	0.19653 0.62956 0.17759 -0.31300
O 	O 	0.22921 0.23812 0.81280 -0.30400
O 	O 	0.22921 0.73812 0.81280 -0.30400
C 	C 	0.18639 0.46224 0.99687 -0.05900
H 	H 	0.17306 0.48400 0.87746 0.02100
C 	C 	0.18639 0.96224 0.99687 -0.04200
H 	H 	0.17306 0.98400 0.87746 0.02400
C 	C 	0.23366 0.26697 0.89002 0.30100
C 	C 	0.23366 0.76697 0.89002 0.30100
F 	F 	0.27493 0.34065 0.20684 -0.44800
F 	F 	0.27493 0.84065 0.20684 -0.45000
C 	C 	0.98706 0.21499 0.87915 -0.04800
C 	C 	0.98706 0.71499 0.87915 -0.04800
O 	O 	0.23949 0.43444 0.88079 -0.36800
Ni	Ni	0.21715 0.42824 0.75427 1.08300
O 	O 	0.27252 0.40003 0.69382 -0.33300
H 	H 	0.22636 0.30682 0.71591 0.19700
C 	C 	0.26559 0.37547 0.61428 0.26700
C 	C 	0.20372 0.42313 0.94965 0.28000
O 	O 	0.21964 0.35839 0.58596 -0.35300
O 	O 	0.19657 0.43281 0.63410 -0.36800
Ni	Ni	0.32800 0.14961 0.34635 1.10600
O 	O 	0.35556 0.20683 0.26625 -0.70000
Ni	Ni	0.31736 0.17143 0.16013 1.11400
O 	O 	0.39121 0.18074 0.41989 -0.34900
O 	O 	0.45149 0.19915 0.29749 -0.37800
O 	O 	0.29241 0.18712 0.43740 -0.34000
Ni	Ni	0.42919 0.24316 0.22965 1.08400
O 	O 	0.21462 0.10326 0.42305 -0.30700
O 	O 	0.44727 0.20372 0.11702 -0.36900
O 	O 	0.35723 0.21923 0.06835 -0.37300
O 	O 	0.28014 0.12101 0.25135 -0.70400
O 	O 	0.29098 0.09112 0.42213 -0.32200
O 	O 	0.26355 0.12961 0.07344 -0.32300
Ni	Ni	0.21261 0.12327 0.30264 1.10000
H 	H 	0.34253 0.23318 0.29003 0.19100
H 	H 	0.27755 0.08681 0.22886 0.17200
C 	C 	0.41513 0.16346 0.07360 0.29100
O 	O 	0.24163 0.19887 0.34771 -0.29700
C 	C 	0.44013 0.19416 0.38346 0.28300
C 	C 	0.37899 0.26719 0.08928 0.28700
C 	C 	0.27110 0.21515 0.41512 0.29600
C 	C 	0.21439 0.10796 0.10556 0.29500
C 	C 	0.23872 0.07449 0.43472 0.25200
O 	O 	0.36754 0.13703 0.10938 -0.37000
O 	O 	0.41144 0.28625 0.15349 -0.33800
C 	C 	0.93089 0.15404 0.97939 -0.05300
C 	C 	0.93776 0.19097 0.92461 0.03100
C 	C 	0.96321 0.12729 0.95754 0.08300
H 	H 	0.95520 0.09472 0.99124 0.09100
H 	H 	0.90815 0.20605 0.92785 0.06500
C 	C 	0.98017 0.19257 0.43497 -0.08800
C 	C 	0.97152 0.19374 0.52774 0.02400
H 	H 	0.93552 0.19556 0.56217 0.07300
C 	C 	0.20138 0.48211 0.42499 -0.04500
C 	C 	0.20741 0.52783 0.47545 0.03900
C 	C 	0.17258 0.52784 0.55336 -0.10500
H 	H 	0.22446 0.48150 0.36178 0.05800
C 	C 	0.17631 0.57603 0.61008 0.77800
F 	F 	0.15538 0.56681 0.69631 -0.38800
F 	F 	0.22809 0.60936 0.61294 -0.43100
F 	F 	0.21227 0.60021 0.88690 -0.41000
C 	C 	0.27960 0.28020 0.94156 -0.01000
C 	C 	0.32818 0.28117 0.90001 0.02100
C 	C 	0.37067 0.29414 0.95065 0.02400
C 	C 	0.36254 0.29862 0.04397 0.00400
C 	C 	0.31802 0.30809 0.08330 -0.10600
C 	C 	0.27593 0.29682 0.03229 0.05000
H 	H 	0.40699 0.29206 0.91833 0.06500
H 	H 	0.33286 0.27082 0.82949 0.11500
C 	C 	0.30887 0.31635 0.18252 0.78200
F 	F 	0.28694 0.27013 0.21499 -0.49600
F 	F 	0.35556 0.34511 0.21898 -0.45800
C 	C 	0.28283 0.26557 0.46480 -0.05500
C 	C 	0.28419 0.30573 0.42391 0.02800
C 	C 	0.30230 0.35412 0.46837 -0.01700
C 	C 	0.30534 0.35973 0.56034 0.05400
C 	C 	0.31837 0.32461 0.59284 -0.14800
C 	C 	0.30239 0.27575 0.54885 0.07000
H 	H 	0.30109 0.38436 0.43740 0.09400
H 	H 	0.30608 0.24634 0.57871 0.08200
H 	H 	0.26812 0.29929 0.36164 0.13900
C 	C 	0.35048 0.33949 0.67096 0.79600
F 	F 	0.37659 0.30829 0.67044 -0.45500
F 	F 	0.38753 0.38794 0.66743 -0.42000
F 	F 	0.31828 0.33714 0.74905 -0.48400
O 	O 	0.23949 0.93444 0.88079 -0.37000
Ni	Ni	0.21715 0.92824 0.75427 1.08200
O 	O 	0.27252 0.90003 0.69382 -0.33500
H 	H 	0.22635 0.80682 0.71591 0.19700
C 	C 	0.26559 0.87547 0.61428 0.26700
C 	C 	0.20372 0.92313 0.94965 0.27300
O 	O 	0.21964 0.85839 0.58596 -0.35300
O 	O 	0.19657 0.93281 0.63410 -0.37100
Ni	Ni	0.32800 0.64961 0.34635 1.10500
O 	O 	0.35556 0.70683 0.26625 -0.70000
Ni	Ni	0.31736 0.67143 0.16013 1.11400
O 	O 	0.39121 0.68074 0.41989 -0.35000
O 	O 	0.45149 0.69915 0.29749 -0.37900
O 	O 	0.29241 0.68712 0.43740 -0.34000
Ni	Ni	0.42919 0.74316 0.22965 1.08400
O 	O 	0.21462 0.60326 0.42305 -0.30800
O 	O 	0.44727 0.70372 0.11702 -0.37000
O 	O 	0.35723 0.71923 0.06835 -0.37300
O 	O 	0.28014 0.62101 0.25135 -0.70400
O 	O 	0.29098 0.59112 0.42213 -0.32600
O 	O 	0.26355 0.62961 0.07344 -0.32300
Ni	Ni	0.21261 0.62327 0.30264 1.10000
H 	H 	0.34253 0.73318 0.29003 0.19100
H 	H 	0.27755 0.58681 0.22886 0.16900
C 	C 	0.41513 0.66346 0.07360 0.29200
O 	O 	0.24163 0.69887 0.34771 -0.29700
C 	C 	0.44013 0.69416 0.38346 0.28300
C 	C 	0.37899 0.76719 0.08928 0.28700
C 	C 	0.27110 0.71515 0.41512 0.29600
C 	C 	0.21439 0.60796 0.10556 0.28900
C 	C 	0.23872 0.57449 0.43472 0.25500
O 	O 	0.36754 0.63702 0.10938 -0.37200
O 	O 	0.41144 0.78625 0.15349 -0.33900
C 	C 	0.93089 0.65404 0.97939 -0.05500
C 	C 	0.93776 0.69097 0.92461 0.03100
C 	C 	0.96321 0.62729 0.95754 0.08400
H 	H 	0.95520 0.59472 0.99124 0.08900
H 	H 	0.90815 0.70605 0.92785 0.06500
C 	C 	0.98017 0.69257 0.43497 -0.08800
C 	C 	0.97152 0.69374 0.52774 0.02400
H 	H 	0.93552 0.69556 0.56217 0.07200
C 	C 	0.20139 0.98211 0.42499 -0.06700
C 	C 	0.20741 0.02783 0.47545 0.05700
C 	C 	0.17258 0.02784 0.55336 -0.08800
H 	H 	0.22446 0.98150 0.36178 0.05700
C 	C 	0.17631 0.07603 0.61008 0.77600
F 	F 	0.15538 0.06681 0.69631 -0.38300
F 	F 	0.22809 0.10936 0.61294 -0.42900
F 	F 	0.21227 0.10021 0.88690 -0.40600
C 	C 	0.27960 0.78020 0.94156 -0.01200
C 	C 	0.32818 0.78117 0.90001 0.02100
C 	C 	0.37067 0.79414 0.95065 0.02200
C 	C 	0.36254 0.79862 0.04397 0.00400
C 	C 	0.31802 0.80809 0.08330 -0.10700
C 	C 	0.27593 0.79682 0.03229 0.05000
H 	H 	0.40699 0.79206 0.91833 0.06400
H 	H 	0.33286 0.77082 0.82949 0.11400
C 	C 	0.30887 0.81635 0.18252 0.78200
F 	F 	0.28694 0.77013 0.21499 -0.49600
F 	F 	0.35556 0.84511 0.21898 -0.46000
C 	C 	0.28283 0.76557 0.46480 -0.05500
C 	C 	0.28419 0.80573 0.42391 0.02800
C 	C 	0.30230 0.85412 0.46837 -0.01700
C 	C 	0.30534 0.85973 0.56034 0.05200
C 	C 	0.31837 0.82461 0.59284 -0.14800
C 	C 	0.30239 0.77575 0.54885 0.07000
H 	H 	0.30109 0.88436 0.43740 0.09200
H 	H 	0.30608 0.74634 0.57871 0.08100
H 	H 	0.26812 0.79929 0.36164 0.13900
C 	C 	0.35048 0.83949 0.67096 0.79600
F 	F 	0.37659 0.80829 0.67044 -0.45600
F 	F 	0.38753 0.88794 0.66743 -0.42300
F 	F 	0.31828 0.83714 0.74905 -0.48500
Ni	Ni	0.67654 0.32502 0.85312 1.10800
O 	O 	0.65839 0.36552 0.77639 -0.71100
Ni	Ni	0.65274 0.32279 0.66271 1.10400
O 	O 	0.67513 0.37562 0.96043 -0.33600
O 	O 	0.73949 0.43444 0.88079 -0.36900
O 	O 	0.59786 0.27864 0.87353 -0.35800
Ni	Ni	0.71715 0.42824 0.75427 1.08300
O 	O 	0.72921 0.23812 0.81280 -0.30400
O 	O 	0.77252 0.40003 0.69382 -0.33300
O 	O 	0.62371 0.36060 0.59961 -0.35100
O 	O 	0.68820 0.29313 0.73165 -0.70600
O 	O 	0.69664 0.28325 0.92361 -0.33600
O 	O 	0.63901 0.26394 0.56707 -0.32900
O 	O 	0.60481 0.20068 0.65874 -0.30400
Ni	Ni	0.66919 0.22196 0.73391 1.11900
H 	H 	0.62529 0.36999 0.79822 0.18300
H 	H 	0.72636 0.30682 0.71591 0.19700
C 	C 	0.76559 0.37547 0.61428 0.26700
O 	O 	0.61788 0.21007 0.84490 -0.28500
C 	C 	0.70372 0.42313 0.94965 0.28000
C 	C 	0.64949 0.41025 0.60294 0.28800
C 	C 	0.58250 0.22940 0.86025 0.26200
C 	C 	0.60508 0.21913 0.58451 0.27500
C 	C 	0.73366 0.26697 0.89002 0.30100
O 	O 	0.71964 0.35839 0.58596 -0.35300
O 	O 	0.69657 0.43281 0.63410 -0.36800
Ni	Ni	0.82800 0.14961 0.34635 1.10600
O 	O 	0.85556 0.20683 0.26625 -0.70000
Ni	Ni	0.81736 0.17143 0.16013 1.11400
O 	O 	0.89121 0.18074 0.41989 -0.35000
O 	O 	0.95149 0.19915 0.29749 -0.38100
O 	O 	0.79241 0.18712 0.43740 -0.34000
Ni	Ni	0.92919 0.24316 0.22965 1.08300
O 	O 	0.71462 0.10326 0.42305 -0.30700
O 	O 	0.94727 0.20372 0.11702 -0.37100
O 	O 	0.85723 0.21923 0.06835 -0.37300
O 	O 	0.78014 0.12101 0.25135 -0.70400
O 	O 	0.79098 0.09112 0.42213 -0.32200
O 	O 	0.76355 0.12961 0.07344 -0.32300
O 	O 	0.69653 0.12956 0.17759 -0.31400
Ni	Ni	0.71261 0.12327 0.30264 1.10000
H 	H 	0.84253 0.23318 0.29003 0.19100
H 	H 	0.77755 0.08681 0.22886 0.17100
C 	C 	0.91513 0.16346 0.07360 0.29100
O 	O 	0.74163 0.19887 0.34771 -0.29700
C 	C 	0.94013 0.19416 0.38346 0.28400
C 	C 	0.87899 0.26719 0.08928 0.28700
C 	C 	0.77110 0.21515 0.41512 0.29600
C 	C 	0.71439 0.10796 0.10556 0.29500
C 	C 	0.73872 0.07449 0.43472 0.25200
O 	O 	0.86754 0.13703 0.10938 -0.37100
O 	O 	0.91144 0.28625 0.15349 -0.34000
C 	C 	0.43089 0.15404 0.97939 -0.05300
C 	C 	0.43776 0.19097 0.92461 0.02900
C 	C 	0.48706 0.21499 0.87915 -0.03700
C 	C 	0.52578 0.19584 0.87577 0.04500
C 	C 	0.50971 0.14652 0.90062 -0.11000
C 	C 	0.46321 0.12729 0.95754 0.09400
H 	H 	0.49573 0.24929 0.85045 0.06200
H 	H 	0.45520 0.09472 0.99124 0.09200
H 	H 	0.40815 0.20605 0.92785 0.06600
C 	C 	0.53807 0.11290 0.86081 0.79300
F 	F 	0.57967 0.12235 0.90856 -0.36900
F 	F 	0.50478 0.06302 0.86326 -0.39500
F 	F 	0.55617 0.12070 0.77311 -0.41600
C 	C 	0.48017 0.19257 0.43497 -0.08000
C 	C 	0.47152 0.19374 0.52774 0.03400
C 	C 	0.51030 0.19499 0.57687 -0.03900
C 	C 	0.55869 0.19616 0.53428 0.05500
C 	C 	0.56498 0.18831 0.44059 -0.11400
C 	C 	0.52647 0.18867 0.39151 0.08900
H 	H 	0.50440 0.19931 0.64862 0.07000
H 	H 	0.53275 0.18627 0.31982 0.08100
H 	H 	0.43552 0.19556 0.56217 0.07200
C 	C 	0.61429 0.18336 0.39259 0.78000
F 	F 	0.60446 0.15636 0.31050 -0.44900
F 	F 	0.65256 0.23042 0.38062 -0.43600
F 	F 	0.63266 0.15864 0.44072 -0.44900
C 	C 	0.63936 0.43759 0.54141 -0.07100
C 	C 	0.66518 0.43709 0.45591 0.03100
C 	C 	0.70139 0.48211 0.42499 -0.04500
C 	C 	0.70741 0.52783 0.47545 0.03900
C 	C 	0.67258 0.52784 0.55336 -0.10500
C 	C 	0.63397 0.48191 0.57799 0.07900
H 	H 	0.72446 0.48150 0.36178 0.05700
H 	H 	0.60679 0.48117 0.63655 0.09500
H 	H 	0.66429 0.40201 0.42052 0.06400
C 	C 	0.67631 0.57603 0.61008 0.77800
F 	F 	0.64856 0.59774 0.57584 -0.41200
F 	F 	0.65538 0.56681 0.69631 -0.38800
F 	F 	0.72809 0.60936 0.61294 -0.43100
C 	C 	0.68639 0.46224 0.99687 -0.06000
C 	C 	0.68756 0.47331 0.08884 -0.00900
C 	C 	0.68614 0.51886 0.12949 -0.02100
C 	C 	0.68586 0.55436 0.07773 -0.00600
C 	C 	0.67450 0.53915 0.98866 -0.08000
C 	C 	0.67650 0.49366 0.94798 0.07900
H 	H 	0.69040 0.52844 0.19968 0.00500
H 	H 	0.67306 0.48400 0.87746 0.02000
H 	H 	0.69305 0.44834 0.12793 0.05600
C 	C 	0.66558 0.57323 0.93416 0.78500
F 	F 	0.71227 0.60021 0.88690 -0.41000
F 	F 	0.62871 0.54531 0.87553 -0.38000
F 	F 	0.64718 0.60608 0.98784 -0.37700
C 	C 	0.77960 0.28020 0.94156 -0.01100
C 	C 	0.82818 0.28117 0.90001 0.02100
C 	C 	0.87067 0.29414 0.95065 0.02300
C 	C 	0.86254 0.29862 0.04397 0.00400
C 	C 	0.81802 0.30809 0.08330 -0.10700
C 	C 	0.77593 0.29682 0.03229 0.05000
H 	H 	0.90699 0.29206 0.91833 0.06400
H 	H 	0.73939 0.29852 0.06439 0.09300
H 	H 	0.83286 0.27082 0.82949 0.11400
C 	C 	0.80887 0.31635 0.18252 0.78200
F 	F 	0.77493 0.34065 0.20684 -0.44900
F 	F 	0.78694 0.27013 0.21499 -0.49600
F 	F 	0.85556 0.34511 0.21898 -0.45900
C 	C 	0.78282 0.26557 0.46480 -0.05500
C 	C 	0.78419 0.30573 0.42391 0.02800
C 	C 	0.80230 0.35412 0.46837 -0.01700
C 	C 	0.80534 0.35973 0.56034 0.05300
C 	C 	0.81837 0.32461 0.59284 -0.14800
C 	C 	0.80239 0.27575 0.54885 0.07000
H 	H 	0.80109 0.38436 0.43740 0.09400
H 	H 	0.80608 0.24634 0.57871 0.08100
H 	H 	0.76812 0.29929 0.36164 0.13900
C 	C 	0.85048 0.33949 0.67096 0.79600
F 	F 	0.87659 0.30829 0.67044 -0.45700
F 	F 	0.88753 0.38794 0.66743 -0.42200
F 	F 	0.81828 0.33714 0.74905 -0.48500
Ni	Ni	0.67654 0.82502 0.85312 1.10800
O 	O 	0.65839 0.86552 0.77639 -0.71100
Ni	Ni	0.65274 0.82279 0.66271 1.10400
O 	O 	0.67512 0.87562 0.96043 -0.33500
O 	O 	0.73949 0.93444 0.88079 -0.37000
O 	O 	0.59786 0.77864 0.87353 -0.35800
Ni	Ni	0.71715 0.92824 0.75427 1.08200
O 	O 	0.72921 0.73812 0.81280 -0.30400
O 	O 	0.77252 0.90003 0.69382 -0.33600
O 	O 	0.62371 0.86060 0.59961 -0.35200
O 	O 	0.68821 0.79314 0.73165 -0.70600
O 	O 	0.69664 0.78325 0.92361 -0.33600
O 	O 	0.63901 0.76394 0.56707 -0.32900
O 	O 	0.60481 0.70068 0.65874 -0.30400
Ni	Ni	0.66919 0.72196 0.73391 1.11900
H 	H 	0.62529 0.86999 0.79822 0.18200
H 	H 	0.72635 0.80682 0.71591 0.19700
C 	C 	0.76559 0.87547 0.61428 0.26700
O 	O 	0.61788 0.71007 0.84490 -0.28500
C 	C 	0.70372 0.92313 0.94965 0.27300
C 	C 	0.64949 0.91025 0.60294 0.28600
C 	C 	0.58250 0.72940 0.86025 0.26200
C 	C 	0.60508 0.71913 0.58451 0.27500
C 	C 	0.73366 0.76697 0.89002 0.30100
O 	O 	0.71964 0.85839 0.58596 -0.35300
O 	O 	0.69657 0.93281 0.63410 -0.37100
Ni	Ni	0.82800 0.64961 0.34635 1.10500
O 	O 	0.85556 0.70683 0.26625 -0.70100
Ni	Ni	0.81736 0.67143 0.16013 1.11400
O 	O 	0.89121 0.68074 0.41989 -0.35100
O 	O 	0.95149 0.69915 0.29749 -0.38200
O 	O 	0.79241 0.68712 0.43740 -0.34000
Ni	Ni	0.92919 0.74316 0.22965 1.08300
O 	O 	0.71462 0.60326 0.42305 -0.30900
O 	O 	0.94727 0.70372 0.11702 -0.37100
O 	O 	0.85723 0.71923 0.06835 -0.37300
O 	O 	0.78014 0.62101 0.25135 -0.70400
O 	O 	0.79098 0.59112 0.42213 -0.32600
O 	O 	0.76355 0.62961 0.07344 -0.32300
O 	O 	0.69653 0.62956 0.17759 -0.31300
Ni	Ni	0.71261 0.62327 0.30264 1.10000
H 	H 	0.84253 0.73318 0.29003 0.19100
H 	H 	0.77755 0.58681 0.22886 0.16900
C 	C 	0.91513 0.66346 0.07360 0.29200
O 	O 	0.74163 0.69887 0.34771 -0.29700
C 	C 	0.94013 0.69416 0.38346 0.28400
C 	C 	0.87899 0.76719 0.08928 0.28700
C 	C 	0.77110 0.71515 0.41512 0.29600
C 	C 	0.71439 0.60796 0.10556 0.28900
C 	C 	0.73872 0.57449 0.43472 0.25500
O 	O 	0.86754 0.63702 0.10938 -0.37300
O 	O 	0.91144 0.78625 0.15349 -0.34000
C 	C 	0.43089 0.65404 0.97939 -0.05500
C 	C 	0.43776 0.69097 0.92461 0.02900
C 	C 	0.48706 0.71499 0.87915 -0.03700
C 	C 	0.52578 0.69584 0.87577 0.04500
C 	C 	0.50971 0.64652 0.90062 -0.11100
C 	C 	0.46320 0.62729 0.95754 0.09400
H 	H 	0.49573 0.74929 0.85045 0.06100
H 	H 	0.45520 0.59472 0.99124 0.08900
H 	H 	0.40815 0.70605 0.92785 0.06500
C 	C 	0.53807 0.61290 0.86081 0.79300
F 	F 	0.57967 0.62235 0.90856 -0.37000
F 	F 	0.50478 0.56302 0.86326 -0.39900
F 	F 	0.55617 0.62070 0.77311 -0.41800
C 	C 	0.48017 0.69257 0.43497 -0.08100
C 	C 	0.47152 0.69374 0.52774 0.03300
C 	C 	0.51030 0.69499 0.57687 -0.04000
C 	C 	0.55869 0.69616 0.53428 0.05400
C 	C 	0.56498 0.68831 0.44059 -0.11500
C 	C 	0.52647 0.68867 0.39151 0.08800
H 	H 	0.50439 0.69931 0.64862 0.06900
H 	H 	0.53275 0.68627 0.31982 0.08000
H 	H 	0.43551 0.69556 0.56217 0.07100
C 	C 	0.61429 0.68336 0.39259 0.78000
F 	F 	0.60446 0.65636 0.31050 -0.45100
F 	F 	0.65256 0.73042 0.38062 -0.43600
F 	F 	0.63266 0.65864 0.44072 -0.45000
C 	C 	0.63936 0.93759 0.54141 -0.06900
C 	C 	0.66518 0.93709 0.45591 0.03300
C 	C 	0.70139 0.98211 0.42499 -0.06700
C 	C 	0.70741 0.02783 0.47545 0.05600
C 	C 	0.67258 0.02784 0.55336 -0.08800
C 	C 	0.63397 0.98191 0.57799 0.05800
H 	H 	0.72446 0.98150 0.36178 0.05700
H 	H 	0.60679 0.98117 0.63655 0.09400
H 	H 	0.66429 0.90200 0.42052 0.06300
C 	C 	0.67631 0.07603 0.61008 0.77600
F 	F 	0.64856 0.09774 0.57584 -0.41000
F 	F 	0.65538 0.06681 0.69631 -0.38400
F 	F 	0.72809 0.10936 0.61294 -0.43000
C 	C 	0.68639 0.96224 0.99687 -0.04300
C 	C 	0.68756 0.97331 0.08884 -0.04200
C 	C 	0.68614 0.01886 0.12949 0.01200
C 	C 	0.68586 0.05436 0.07773 -0.02300
C 	C 	0.67450 0.03915 0.98866 -0.04800
C 	C 	0.67650 0.99366 0.94798 0.04400
H 	H 	0.69040 0.02844 0.19968 0.00100
H 	H 	0.67306 0.98400 0.87746 0.02400
H 	H 	0.69305 0.94834 0.12793 0.06100
C 	C 	0.66558 0.07323 0.93416 0.77800
F 	F 	0.71227 0.10021 0.88690 -0.40700
F 	F 	0.62871 0.04531 0.87553 -0.37300
F 	F 	0.64718 0.10608 0.98784 -0.37500
C 	C 	0.77960 0.78020 0.94156 -0.01200
C 	C 	0.82818 0.78117 0.90001 0.02100
C 	C 	0.87067 0.79414 0.95065 0.02100
C 	C 	0.86254 0.79862 0.04397 0.00400
C 	C 	0.81802 0.80809 0.08330 -0.10800
C 	C 	0.77593 0.79682 0.03229 0.05100
H 	H 	0.90699 0.79206 0.91833 0.06300
H 	H 	0.73939 0.79852 0.06439 0.09200
H 	H 	0.83286 0.77082 0.82949 0.11400
C 	C 	0.80887 0.81635 0.18252 0.78200
F 	F 	0.77493 0.84065 0.20684 -0.45000
F 	F 	0.78694 0.77013 0.21499 -0.49600
F 	F 	0.85556 0.84511 0.21898 -0.46000
C 	C 	0.78283 0.76557 0.46480 -0.05500
C 	C 	0.78419 0.80573 0.42391 0.02800
C 	C 	0.80230 0.85412 0.46837 -0.01700
C 	C 	0.80534 0.85973 0.56034 0.05200
C 	C 	0.81837 0.82461 0.59284 -0.14800
C 	C 	0.80239 0.77575 0.54885 0.07000
H 	H 	0.80109 0.88436 0.43740 0.09200
H 	H 	0.80608 0.74634 0.57871 0.08100
H 	H 	0.76812 0.79929 0.36164 0.13900
C 	C 	0.85048 0.83949 0.67096 0.79600
F 	F 	0.87659 0.80829 0.67044 -0.45700
F 	F 	0.88753 0.88794 0.66743 -0.42500
F 	F 	0.81828 0.83714 0.74905 -0.48500
