data_crystal

_cell_length_a 14.91100
_cell_length_b 14.95811
_cell_length_c 25.19513
_cell_angle_alpha 90.00000
_cell_angle_beta  90.00000
_cell_angle_gamma 89.99966

_symmetry_space_group_name_	'P 1'
_symmetry_space_group_name_H-M	'P 1'

loop_
_symmetry_equiv_pos_as_xyz
  x,y,z

loop_
_atom_site_label
_atom_site_type_symbol
_atom_site_fract_x
_atom_site_fract_y
_atom_site_fract_z
_atom_site_charge
C 	C 	0.80048 0.91738 0.07468 0.28700
C 	C 	0.20902 0.09655 0.07333 0.31300
C 	C 	0.91423 0.20913 0.07316 0.28300
C 	C 	0.09021 0.80391 0.07808 0.28400
O 	O 	0.87892 0.92927 0.05412 -0.45800
O 	O 	0.12764 0.08189 0.05752 -0.55500
O 	O 	0.92638 0.13017 0.05359 -0.45100
O 	O 	0.07987 0.88158 0.05634 -0.44900
O 	O 	0.74086 0.97665 0.06151 -0.36400
O 	O 	0.26811 0.03704 0.05990 -0.36300
O 	O 	0.97451 0.26800 0.06031 -0.36500
O 	O 	0.03075 0.74453 0.06468 -0.34700
Cd	Cd	0.95228 0.83094 0.00022 1.22000
Cd	Cd	0.05677 0.17830 0.99912 1.23400
Cd	Cd	0.82972 0.05583 0.99828 1.23400
Cd	Cd	0.17909 0.95337 0.00081 1.22100
C 	C 	0.80139 0.91422 0.92419 0.30900
C 	C 	0.20710 0.09002 0.92291 0.28300
C 	C 	0.91877 0.20566 0.92163 0.28400
C 	C 	0.09447 0.79972 0.92628 0.28300
O 	O 	0.88225 0.92803 0.94128 -0.55900
O 	O 	0.12929 0.07940 0.94462 -0.43700
O 	O 	0.92932 0.12799 0.94326 -0.45100
O 	O 	0.08246 0.87874 0.94573 -0.44800
O 	O 	0.74185 0.97288 0.93826 -0.37600
O 	O 	0.26692 0.03128 0.93662 -0.34400
O 	O 	0.97801 0.26516 0.93513 -0.36400
O 	O 	0.03448 0.74081 0.93947 -0.35100
H 	H 	0.08224 0.06377 0.08541 0.19400
H 	H 	0.92870 0.94676 0.91414 0.17800
O 	O 	0.00446 0.00464 0.99980 -0.31200
C 	C 	0.70704 0.59131 0.32634 0.28300
C 	C 	0.30166 0.41502 0.32656 0.30900
C 	C 	0.59329 0.30167 0.32614 0.28000
C 	C 	0.41726 0.70753 0.32602 0.28500
O 	O 	0.62917 0.58020 0.30481 -0.44600
O 	O 	0.38238 0.42884 0.30924 -0.55700
O 	O 	0.58207 0.37990 0.30528 -0.45000
O 	O 	0.42874 0.62899 0.30581 -0.44800
O 	O 	0.76702 0.53258 0.31296 -0.35800
O 	O 	0.24198 0.47334 0.31215 -0.36500
O 	O 	0.53364 0.24242 0.31296 -0.35800
O 	O 	0.47680 0.76673 0.31255 -0.36100
Cd	Cd	0.55658 0.67826 0.24978 1.22800
Cd	Cd	0.45233 0.33082 0.25102 1.22900
Cd	Cd	0.67931 0.45333 0.24963 1.22900
Cd	Cd	0.32983 0.55555 0.25139 1.22900
C 	C 	0.70897 0.59550 0.17593 0.31000
C 	C 	0.30042 0.41627 0.17591 0.28500
C 	C 	0.59186 0.30161 0.17452 0.28400
C 	C 	0.41563 0.70723 0.17424 0.27900
O 	O 	0.62770 0.58090 0.19200 -0.55700
O 	O 	0.37906 0.42809 0.19618 -0.44500
O 	O 	0.58046 0.38009 0.19489 -0.44500
O 	O 	0.42662 0.62896 0.19517 -0.44800
O 	O 	0.76820 0.53631 0.18973 -0.37000
O 	O 	0.24089 0.47560 0.18900 -0.35600
O 	O 	0.53199 0.24254 0.18778 -0.35200
O 	O 	0.47548 0.76635 0.18742 -0.35800
H 	H 	0.42886 0.44825 0.33618 0.18700
H 	H 	0.58225 0.56204 0.16431 0.18700
O 	O 	0.50456 0.50451 0.25015 -0.33500
C 	C 	0.17926 0.29886 0.13888 -0.01100
H 	H 	0.11706 0.33462 0.15057 0.04700
C 	C 	0.20682 0.20425 0.15778 -0.00800
H 	H 	0.16710 0.16068 0.18462 0.03100
C 	C 	0.20640 0.27442 0.08139 -0.00700
H 	H 	0.16633 0.28924 0.04534 -0.03200
C 	C 	0.23433 0.18095 0.10068 -0.10600
C 	C 	0.27552 0.33126 0.14912 -0.09000
C 	C 	0.30299 0.30792 0.09201 -0.01400
H 	H 	0.34268 0.35143 0.06512 0.03100
C 	C 	0.33057 0.21332 0.11091 -0.00400
H 	H 	0.39273 0.17753 0.09921 0.04400
C 	C 	0.30343 0.23777 0.16842 -0.01200
H 	H 	0.34337 0.22280 0.20449 -0.03200
C 	C 	0.26612 0.25877 0.92754 -0.02800
H 	H 	0.27634 0.26277 0.97107 0.01700
C 	C 	0.20194 0.31789 0.89427 -0.00800
H 	H 	0.15890 0.37229 0.91009 0.03500
C 	C 	0.34060 0.27115 0.88536 -0.01200
H 	H 	0.41171 0.28739 0.89414 0.03000
C 	C 	0.27606 0.32908 0.85240 -0.10300
C 	C 	0.23271 0.17605 0.89728 -0.08300
C 	C 	0.30684 0.18724 0.85540 -0.01700
H 	H 	0.34988 0.13285 0.83958 0.03700
C 	C 	0.24268 0.24635 0.82215 -0.01800
H 	H 	0.23241 0.24230 0.77863 0.01500
C 	C 	0.16819 0.23396 0.86431 -0.01700
H 	H 	0.09716 0.21758 0.85543 0.04200
C 	C 	0.18623 0.70708 0.14752 -0.01300
H 	H 	0.13070 0.66721 0.16490 0.03500
C 	C 	0.24828 0.77163 0.17856 -0.02400
H 	H 	0.24554 0.78527 0.22180 0.01800
C 	C 	0.26859 0.66845 0.11791 -0.01700
H 	H 	0.28256 0.59655 0.11083 0.03600
C 	C 	0.32944 0.73332 0.14865 -0.08500
C 	C 	0.17637 0.77798 0.10373 -0.08800
C 	C 	0.25754 0.73970 0.07383 -0.02400
H 	H 	0.26022 0.72596 0.03060 0.01500
C 	C 	0.31959 0.80423 0.10486 -0.01800
H 	H 	0.37512 0.84409 0.08747 0.02800
C 	C 	0.23723 0.84290 0.13446 -0.01700
H 	H 	0.22334 0.91489 0.14131 0.02700
C 	C 	0.79707 0.33058 0.11074 -0.01100
H 	H 	0.83380 0.39247 0.09981 0.04100
C 	C 	0.77116 0.30245 0.16786 -0.01300
H 	H 	0.78603 0.34127 0.20434 -0.03600
C 	C 	0.70215 0.30468 0.09105 -0.01300
H 	H 	0.65950 0.34541 0.06421 0.03000
C 	C 	0.67734 0.27622 0.14780 -0.09100
C 	C 	0.82870 0.23451 0.09983 -0.09000
C 	C 	0.73489 0.20825 0.07977 -0.01100
H 	H 	0.72015 0.16931 0.04331 -0.03000
C 	C 	0.70898 0.18014 0.13689 -0.00800
H 	H 	0.67224 0.11826 0.14783 0.04800
C 	C 	0.80389 0.20604 0.15658 -0.01200
H 	H 	0.84655 0.16530 0.18340 0.03100
C 	C 	0.70340 0.81906 0.85490 -0.01000
H 	H 	0.66195 0.87420 0.83851 0.02900
C 	C 	0.66706 0.73561 0.88426 -0.01800
H 	H 	0.59545 0.72018 0.89201 0.03700
C 	C 	0.76817 0.75911 0.82260 -0.02800
H 	H 	0.78040 0.76300 0.77924 0.01500
C 	C 	0.73218 0.67692 0.85227 -0.08600
C 	C 	0.77580 0.82896 0.89791 -0.10500
C 	C 	0.84093 0.77022 0.86592 -0.01300
H 	H 	0.91264 0.78546 0.85830 0.02400
C 	C 	0.80458 0.68683 0.89528 -0.01700
H 	H 	0.84604 0.63172 0.91170 0.03200
C 	C 	0.73982 0.74675 0.92758 -0.01800
H 	H 	0.72760 0.74280 0.97093 0.01700
C 	C 	0.77280 0.16686 0.86453 -0.01500
H 	H 	0.78763 0.09529 0.85684 0.03400
C 	C 	0.76117 0.23953 0.82131 -0.02500
H 	H 	0.76422 0.22749 0.77792 0.01700
C 	C 	0.68986 0.20349 0.89446 -0.01500
H 	H 	0.63468 0.16241 0.91122 0.03500
C 	C 	0.67946 0.27580 0.85155 -0.08500
C 	C 	0.83265 0.23142 0.89616 -0.09000
C 	C 	0.75094 0.26766 0.92640 -0.02300
H 	H 	0.74793 0.27978 0.96979 0.01700
C 	C 	0.73931 0.34032 0.88320 -0.01700
H 	H 	0.72438 0.41177 0.89112 0.03600
C 	C 	0.82224 0.30372 0.85326 -0.01400
H 	H 	0.87742 0.34481 0.83651 0.03000
C 	C 	0.21113 0.67827 0.88830 -0.01000
H 	H 	0.17378 0.61637 0.89847 0.04500
C 	C 	0.30586 0.70305 0.90878 -0.01100
H 	H 	0.34787 0.66135 0.93544 0.03100
C 	C 	0.23811 0.70774 0.83160 -0.01100
H 	H 	0.22365 0.66998 0.79467 -0.03500
C 	C 	0.33172 0.73287 0.85245 -0.09300
C 	C 	0.18000 0.77424 0.89990 -0.08900
C 	C 	0.20586 0.80406 0.84358 -0.01300
H 	H 	0.16384 0.84577 0.81693 0.03100
C 	C 	0.30059 0.82884 0.86405 -0.00900
H 	H 	0.33793 0.89073 0.85387 0.04100
C 	C 	0.27360 0.79938 0.92075 -0.01200
H 	H 	0.28794 0.83731 0.95764 -0.03200
C 	C 	0.83058 0.71233 0.13787 -0.00600
H 	H 	0.89279 0.67575 0.14860 0.03900
C 	C 	0.80453 0.80679 0.15779 -0.01400
H 	H 	0.84547 0.84925 0.18461 0.02700
C 	C 	0.80190 0.73839 0.08085 -0.01400
H 	H 	0.84058 0.72376 0.04425 -0.03900
C 	C 	0.77553 0.83177 0.10115 -0.09300
C 	C 	0.73436 0.68054 0.14894 -0.10600
C 	C 	0.70533 0.70549 0.09231 -0.01100
H 	H 	0.66435 0.66297 0.06554 0.02500
C 	C 	0.67930 0.79995 0.11224 -0.01200
H 	H 	0.61705 0.83648 0.10153 0.04000
C 	C 	0.70797 0.77390 0.16922 -0.00900
H 	H 	0.66912 0.78836 0.20579 -0.03600
C 	C 	0.80048 0.91738 0.57468 0.28600
C 	C 	0.20902 0.09655 0.57333 0.31200
C 	C 	0.91423 0.20913 0.57317 0.28200
C 	C 	0.09021 0.80391 0.57808 0.28300
O 	O 	0.87892 0.92927 0.55412 -0.45600
O 	O 	0.12764 0.08189 0.55752 -0.55600
O 	O 	0.92638 0.13017 0.55359 -0.45200
O 	O 	0.07987 0.88158 0.55634 -0.44800
O 	O 	0.74086 0.97665 0.56151 -0.36200
O 	O 	0.26811 0.03704 0.55990 -0.36500
O 	O 	0.97451 0.26800 0.56031 -0.36500
O 	O 	0.03075 0.74453 0.56468 -0.34600
Cd	Cd	0.95228 0.83094 0.50022 1.22200
Cd	Cd	0.05677 0.17830 0.49912 1.23300
Cd	Cd	0.82972 0.05583 0.49828 1.23300
Cd	Cd	0.17909 0.95337 0.50081 1.22300
C 	C 	0.80139 0.91422 0.42419 0.30900
C 	C 	0.20710 0.09002 0.42291 0.28300
C 	C 	0.91877 0.20566 0.42163 0.28400
C 	C 	0.09447 0.79972 0.42628 0.28300
O 	O 	0.88225 0.92803 0.44128 -0.56200
O 	O 	0.12929 0.07940 0.44462 -0.43700
O 	O 	0.92932 0.12799 0.44326 -0.45100
O 	O 	0.08246 0.87874 0.44573 -0.45100
O 	O 	0.74185 0.97288 0.43827 -0.37900
O 	O 	0.26692 0.03128 0.43662 -0.34400
O 	O 	0.97801 0.26516 0.43513 -0.36600
O 	O 	0.03448 0.74081 0.43947 -0.35300
H 	H 	0.08224 0.06377 0.58541 0.19400
H 	H 	0.92870 0.94676 0.41414 0.17800
O 	O 	0.00446 0.00464 0.49980 -0.31300
C 	C 	0.70704 0.59131 0.82634 0.28300
C 	C 	0.30166 0.41502 0.82656 0.30900
C 	C 	0.59329 0.30167 0.82614 0.28100
C 	C 	0.41726 0.70753 0.82602 0.28500
O 	O 	0.62917 0.58020 0.80481 -0.44600
O 	O 	0.38238 0.42883 0.80924 -0.55700
O 	O 	0.58207 0.37990 0.80528 -0.45000
O 	O 	0.42874 0.62899 0.80581 -0.44800
O 	O 	0.76702 0.53258 0.81296 -0.35800
O 	O 	0.24198 0.47334 0.81215 -0.36500
O 	O 	0.53364 0.24242 0.81296 -0.35800
O 	O 	0.47680 0.76673 0.81255 -0.36000
Cd	Cd	0.55658 0.67826 0.74978 1.22800
Cd	Cd	0.45233 0.33082 0.75102 1.22900
Cd	Cd	0.67931 0.45333 0.74963 1.22900
Cd	Cd	0.32983 0.55555 0.75139 1.22900
C 	C 	0.70897 0.59550 0.67593 0.31000
C 	C 	0.30042 0.41627 0.67590 0.28500
C 	C 	0.59186 0.30161 0.67452 0.28400
C 	C 	0.41563 0.70723 0.67424 0.27900
O 	O 	0.62770 0.58090 0.69200 -0.55700
O 	O 	0.37906 0.42809 0.69618 -0.44500
O 	O 	0.58046 0.38009 0.69489 -0.44500
O 	O 	0.42662 0.62896 0.69517 -0.44800
O 	O 	0.76820 0.53631 0.68973 -0.37000
O 	O 	0.24089 0.47560 0.68900 -0.35600
O 	O 	0.53199 0.24254 0.68778 -0.35200
O 	O 	0.47548 0.76635 0.68742 -0.35800
H 	H 	0.42886 0.44825 0.83618 0.18700
H 	H 	0.58225 0.56204 0.66431 0.18700
O 	O 	0.50456 0.50451 0.75015 -0.33500
C 	C 	0.17926 0.29886 0.63888 -0.01100
H 	H 	0.11706 0.33462 0.65056 0.04700
C 	C 	0.20682 0.20425 0.65778 -0.00900
H 	H 	0.16710 0.16068 0.68462 0.03100
C 	C 	0.20640 0.27442 0.58139 -0.00700
H 	H 	0.16633 0.28924 0.54534 -0.03100
C 	C 	0.23433 0.18095 0.60068 -0.10600
C 	C 	0.27552 0.33126 0.64912 -0.09000
C 	C 	0.30299 0.30792 0.59201 -0.01300
H 	H 	0.34268 0.35143 0.56512 0.03200
C 	C 	0.33057 0.21332 0.61091 -0.00400
H 	H 	0.39273 0.17753 0.59920 0.04400
C 	C 	0.30343 0.23777 0.66842 -0.01200
H 	H 	0.34337 0.22280 0.70449 -0.03300
C 	C 	0.26612 0.25877 0.42754 -0.02800
H 	H 	0.27634 0.26277 0.47107 0.01600
C 	C 	0.20194 0.31789 0.39427 -0.00900
H 	H 	0.15890 0.37229 0.41009 0.03400
C 	C 	0.34060 0.27115 0.38536 -0.01200
H 	H 	0.41171 0.28739 0.39414 0.03000
C 	C 	0.27606 0.32908 0.35240 -0.10300
C 	C 	0.23271 0.17605 0.39728 -0.08300
C 	C 	0.30684 0.18724 0.35540 -0.01700
H 	H 	0.34988 0.13285 0.33958 0.03700
C 	C 	0.24267 0.24635 0.32215 -0.01800
H 	H 	0.23241 0.24230 0.27863 0.01500
C 	C 	0.16819 0.23396 0.36431 -0.01700
H 	H 	0.09716 0.21758 0.35543 0.04300
C 	C 	0.18623 0.70708 0.64752 -0.01300
H 	H 	0.13071 0.66721 0.66490 0.03500
C 	C 	0.24828 0.77163 0.67856 -0.02400
H 	H 	0.24554 0.78527 0.72180 0.01800
C 	C 	0.26859 0.66845 0.61791 -0.01700
H 	H 	0.28256 0.59655 0.61084 0.03700
C 	C 	0.32944 0.73332 0.64865 -0.08500
C 	C 	0.17637 0.77798 0.60373 -0.08800
C 	C 	0.25754 0.73970 0.57383 -0.02400
H 	H 	0.26022 0.72596 0.53060 0.01700
C 	C 	0.31959 0.80423 0.60486 -0.01700
H 	H 	0.37512 0.84409 0.58747 0.02900
C 	C 	0.23723 0.84290 0.63446 -0.01700
H 	H 	0.22334 0.91489 0.64131 0.02800
C 	C 	0.79707 0.33058 0.61074 -0.01100
H 	H 	0.83380 0.39247 0.59981 0.04100
C 	C 	0.77116 0.30245 0.66786 -0.01300
H 	H 	0.78603 0.34127 0.70434 -0.03600
C 	C 	0.70215 0.30468 0.59105 -0.01200
H 	H 	0.65950 0.34541 0.56421 0.03000
C 	C 	0.67734 0.27622 0.64780 -0.09100
C 	C 	0.82870 0.23451 0.59983 -0.09000
C 	C 	0.73489 0.20825 0.57977 -0.01100
H 	H 	0.72015 0.16931 0.54331 -0.02900
C 	C 	0.70898 0.18014 0.63689 -0.00800
H 	H 	0.67224 0.11826 0.64783 0.04700
C 	C 	0.80389 0.20604 0.65658 -0.01200
H 	H 	0.84656 0.16530 0.68340 0.03100
C 	C 	0.70340 0.81906 0.35490 -0.01000
H 	H 	0.66195 0.87420 0.33851 0.02800
C 	C 	0.66706 0.73561 0.38426 -0.01900
H 	H 	0.59545 0.72018 0.39201 0.03600
C 	C 	0.76817 0.75911 0.32260 -0.02800
H 	H 	0.78040 0.76300 0.27924 0.01500
C 	C 	0.73218 0.67692 0.35227 -0.08600
C 	C 	0.77580 0.82896 0.39791 -0.10600
C 	C 	0.84093 0.77022 0.36593 -0.01300
H 	H 	0.91264 0.78546 0.35830 0.02400
C 	C 	0.80458 0.68683 0.39528 -0.01800
H 	H 	0.84604 0.63172 0.41169 0.03100
C 	C 	0.73982 0.74675 0.42758 -0.01800
H 	H 	0.72760 0.74280 0.47093 0.01500
C 	C 	0.77280 0.16686 0.36453 -0.01500
H 	H 	0.78763 0.09529 0.35684 0.03500
C 	C 	0.76117 0.23953 0.32131 -0.02500
H 	H 	0.76422 0.22749 0.27792 0.01700
C 	C 	0.68986 0.20349 0.39446 -0.01600
H 	H 	0.63468 0.16241 0.41122 0.03500
C 	C 	0.67946 0.27580 0.35155 -0.08500
C 	C 	0.83265 0.23142 0.39616 -0.09000
C 	C 	0.75094 0.26766 0.42640 -0.02300
H 	H 	0.74793 0.27978 0.46979 0.01600
C 	C 	0.73931 0.34032 0.38320 -0.01700
H 	H 	0.72438 0.41177 0.39112 0.03600
C 	C 	0.82224 0.30372 0.35326 -0.01400
H 	H 	0.87742 0.34481 0.33651 0.03000
C 	C 	0.21113 0.67827 0.38830 -0.01100
H 	H 	0.17378 0.61637 0.39847 0.04400
C 	C 	0.30586 0.70305 0.40878 -0.01200
H 	H 	0.34787 0.66135 0.43544 0.03000
C 	C 	0.23811 0.70774 0.33161 -0.01100
H 	H 	0.22365 0.66998 0.29467 -0.03500
C 	C 	0.33172 0.73287 0.35245 -0.09300
C 	C 	0.18000 0.77424 0.39991 -0.09000
C 	C 	0.20586 0.80406 0.34358 -0.01300
H 	H 	0.16384 0.84577 0.31693 0.03000
C 	C 	0.30059 0.82884 0.36405 -0.01000
H 	H 	0.33793 0.89073 0.35387 0.04000
C 	C 	0.27360 0.79938 0.42075 -0.01300
H 	H 	0.28794 0.83731 0.45764 -0.03500
C 	C 	0.83058 0.71233 0.63787 -0.00600
H 	H 	0.89279 0.67575 0.64860 0.03900
C 	C 	0.80453 0.80679 0.65779 -0.01400
H 	H 	0.84547 0.84925 0.68461 0.02700
C 	C 	0.80190 0.73839 0.58086 -0.01300
H 	H 	0.84058 0.72376 0.54425 -0.03800
C 	C 	0.77554 0.83177 0.60115 -0.09200
C 	C 	0.73436 0.68054 0.64894 -0.10700
C 	C 	0.70533 0.70549 0.59231 -0.01000
H 	H 	0.66435 0.66297 0.56554 0.02600
C 	C 	0.67930 0.79995 0.61224 -0.01200
H 	H 	0.61705 0.83648 0.60153 0.04100
C 	C 	0.70797 0.77390 0.66922 -0.00900
H 	H 	0.66912 0.78836 0.70579 -0.03600
