data_crystal

_cell_length_a 11.74700
_cell_length_b 13.50129
_cell_length_c 18.43770
_cell_angle_alpha 83.56116
_cell_angle_beta  83.56115
_cell_angle_gamma 78.07914

_symmetry_space_group_name_	'P 1'
_symmetry_space_group_name_H-M	'P 1'

loop_
_symmetry_equiv_pos_as_xyz
  x,y,z

loop_
_atom_site_label
_atom_site_type_symbol
_atom_site_fract_x
_atom_site_fract_y
_atom_site_fract_z
_atom_site_charge
Zn	Zn	0.02465 0.26011 0.96800 1.16100
Zn	Zn	0.74180 0.26056 0.98519 1.18800
O 	O 	0.52855 0.18526 0.95079 -0.52400
O 	O 	0.56645 0.30348 0.01545 -0.37400
O 	O 	0.69294 0.94494 0.91431 -0.47200
C 	C 	0.23848 0.26041 0.87828 0.26100
O 	O 	0.74109 0.11699 0.01718 -0.81100
C 	C 	0.82644 0.41874 0.01135 0.44200
O 	O 	0.18808 0.27378 0.94466 -0.46300
O 	O 	0.34987 0.26239 0.86405 -0.19600
O 	O 	0.90875 0.19434 0.94952 -0.75400
O 	O 	0.85817 0.00530 0.87385 -0.44200
O 	O 	0.76025 0.40005 0.96394 -0.50600
O 	O 	0.93965 0.40344 0.99268 -0.45100
Zn	Zn	0.88738 0.85570 0.11823 1.20300
Zn	Zn	0.03066 0.85720 0.96697 1.17100
Zn	Zn	0.90025 0.05793 0.98937 1.19400
C 	C 	0.03007 0.67419 0.04553 0.28400
C 	C 	0.03067 0.92007 0.19458 0.22600
O 	O 	0.96376 0.12295 0.10075 -0.33800
Zn	Zn	0.16161 0.98868 0.03197 1.21500
O 	O 	0.99611 0.72480 0.98469 -0.44300
O 	O 	0.00487 0.71809 0.10755 -0.46500
O 	O 	0.93384 0.88541 0.20670 -0.39900
O 	O 	0.10336 0.89142 0.13703 -0.41900
C 	C 	0.28648 0.83503 0.93971 0.21800
O 	O 	0.88617 0.92066 0.02642 -0.72000
C 	C 	0.06505 0.14978 0.11032 0.15800
O 	O 	0.19460 0.80523 0.92112 -0.43100
O 	O 	0.28262 0.87106 0.00361 -0.37200
O 	O 	0.16428 0.09888 0.08231 -0.46300
O 	O 	0.05626 0.99472 0.96063 -0.92300
Zn	Zn	0.64247 0.06009 0.96816 1.17100
C 	C 	0.50137 0.23780 0.00790 0.39200
C 	C 	0.78677 0.94253 0.86856 0.30800
H 	H 	0.08521 0.01919 0.91068 0.14300
H 	H 	0.72386 0.10418 0.07069 0.15900
Zn	Zn	0.35178 0.59569 0.58845 1.18000
Zn	Zn	0.39113 0.65483 0.41935 1.19600
O 	O 	0.56617 0.80328 0.36248 -0.47400
O 	O 	0.40601 0.75270 0.32905 -0.43600
O 	O 	0.72958 0.65950 0.49813 -0.47900
C 	C 	0.41374 0.52795 0.73567 0.27400
O 	O 	0.55091 0.58330 0.39980 -0.90000
C 	C 	0.21937 0.77856 0.50587 0.26200
O 	O 	0.38409 0.60831 0.68954 -0.43700
O 	O 	0.48216 0.44641 0.71153 -0.27600
O 	O 	0.39403 0.53914 0.49858 -0.77200
O 	O 	0.62486 0.54999 0.56697 -0.43200
O 	O 	0.23457 0.72427 0.44959 -0.46300
O 	O 	0.27860 0.74551 0.56331 -0.45700
Zn	Zn	0.83345 0.33717 0.39384 1.19900
Zn	Zn	0.71147 0.29227 0.54116 1.18900
Zn	Zn	0.55054 0.47038 0.47243 1.22400
C 	C 	0.96359 0.26459 0.51660 0.38600
C 	C 	0.76965 0.16958 0.38192 0.27400
O 	O 	0.44736 0.40403 0.37946 -0.38200
Zn	Zn	0.53283 0.23715 0.49411 1.19100
O 	O 	0.87573 0.21831 0.53468 -0.44700
O 	O 	0.96287 0.32867 0.45774 -0.43400
O 	O 	0.86975 0.19883 0.37366 -0.41100
O 	O 	0.71923 0.15818 0.44923 -0.43700
C 	C 	0.60046 0.13446 0.63288 0.31800
O 	O 	0.71309 0.40292 0.45171 -0.77600
C 	C 	0.41251 0.31716 0.37444 0.29100
O 	O 	0.67531 0.19576 0.62994 -0.42700
O 	O 	0.53833 0.13505 0.57780 -0.45600
O 	O 	0.46523 0.23278 0.40812 -0.46900
O 	O 	0.54931 0.35342 0.54092 -0.88200
Zn	Zn	0.64090 0.67476 0.41676 1.18200
C 	C 	0.48626 0.80926 0.31640 0.30100
C 	C 	0.69301 0.61872 0.56230 0.28500
H 	H 	0.50548 0.36168 0.58959 0.19900
H 	H 	0.56670 0.56227 0.34930 0.18000
C 	C 	0.13647 0.25351 0.27083 0.06700
C 	C 	0.20219 0.32354 0.23504 0.08300
N 	N 	0.28594 0.35152 0.27043 -0.09700
C 	C 	0.30163 0.31560 0.34180 -0.03800
C 	C 	0.22627 0.25420 0.37911 0.03700
N 	N 	0.14725 0.22293 0.34272 -0.12500
N 	N 	0.07225 0.20861 0.23140 -0.11100
N 	N 	0.18948 0.35531 0.16337 -0.10500
H 	H 	0.23756 0.22482 0.43519 0.02000
C 	C 	0.07030 0.23162 0.15739 -0.02600
C 	C 	0.12138 0.31363 0.12477 0.02400
H 	H 	0.11793 0.33597 0.06708 0.03200
C 	C 	0.49446 0.93659 0.76002 0.09300
C 	C 	0.48229 0.98040 0.82663 0.12100
N 	N 	0.42610 0.93859 0.88663 -0.12700
C 	C 	0.37663 0.85716 0.88243 -0.02600
C 	C 	0.39368 0.81021 0.81665 0.04200
N 	N 	0.45218 0.85108 0.75665 -0.10600
N 	N 	0.54036 0.98423 0.69841 -0.06600
N 	N 	0.51972 0.06822 0.82942 -0.15800
H 	H 	0.35555 0.74493 0.81233 0.05100
C 	C 	0.57605 0.07345 0.70093 -0.06400
C 	C 	0.56828 0.11471 0.76820 0.04900
H 	H 	0.59486 0.18625 0.77103 0.03400
C 	C 	0.04400 0.98131 0.38118 -0.00700
C 	C 	0.16448 0.98076 0.38003 0.13900
N 	N 	0.21918 0.94236 0.44100 -0.11200
C 	C 	0.16527 0.88563 0.49427 0.01500
C 	C 	0.04318 0.90969 0.50374 -0.10500
N 	N 	0.98401 0.95647 0.44594 -0.00500
N 	N 	0.99857 0.97753 0.31732 -0.00500
N 	N 	0.22883 0.98921 0.31456 -0.10900
H 	H 	0.99663 0.87596 0.55093 0.12500
C 	C 	0.06912 0.96588 0.25379 -0.07000
C 	C 	0.18430 0.97930 0.25149 0.07600
H 	H 	0.23925 0.97750 0.20062 0.04300
C 	C 	0.73027 0.26625 0.17642 0.10000
C 	C 	0.69962 0.33782 0.22805 0.07500
N 	N 	0.67708 0.30522 0.29959 -0.15400
C 	C 	0.69724 0.20360 0.32176 -0.08500
C 	C 	0.70426 0.13547 0.26892 0.07600
N 	N 	0.72559 0.16733 0.19714 -0.13900
N 	N 	0.77672 0.29366 0.10865 -0.15600
N 	N 	0.71156 0.43575 0.20828 -0.14900
H 	H 	0.71165 0.05498 0.28532 0.02000
C 	C 	0.78990 0.39080 0.08836 -0.10900
C 	C 	0.75517 0.46393 0.13897 0.08200
H 	H 	0.76252 0.54227 0.12344 0.02100
C 	C 	0.75129 0.74450 0.75279 0.10000
C 	C 	0.78638 0.78575 0.68273 0.09900
N 	N 	0.76957 0.74242 0.62253 -0.08900
C 	C 	0.71990 0.65835 0.62938 -0.03100
C 	C 	0.68997 0.61441 0.69995 0.04700
N 	N 	0.70501 0.65903 0.76016 -0.10400
N 	N 	0.75871 0.79295 0.81261 -0.09000
N 	N 	0.83223 0.87138 0.67529 -0.10300
H 	H 	0.65655 0.54487 0.70693 0.04800
C 	C 	0.80179 0.88058 0.80531 -0.03500
C 	C 	0.84176 0.91903 0.73514 0.05400
H 	H 	0.87443 0.98917 0.72785 0.06300
C 	C 	0.16107 0.22963 0.69508 0.07500
C 	C 	0.05830 0.30377 0.69070 0.06900
N 	N 	0.00466 0.32239 0.62808 -0.11600
C 	C 	0.04318 0.26445 0.57140 -0.12800
C 	C 	0.14211 0.18604 0.57735 0.05200
N 	N 	0.20146 0.17244 0.63813 -0.12700
N 	N 	0.21539 0.21174 0.75781 -0.09900
N 	N 	0.00766 0.34969 0.75105 -0.13200
H 	H 	0.16676 0.13225 0.53630 0.01600
C 	C 	0.16734 0.26139 0.81764 -0.09300
C 	C 	0.05804 0.32756 0.81502 0.01200
H 	H 	0.01804 0.36733 0.86174 -0.04000
C 	C 	0.30286 0.53388 0.93176 0.09000
C 	C 	0.19288 0.50874 0.93028 0.09000
N 	N 	0.11412 0.52207 0.98944 -0.14500
C 	C 	0.12516 0.58633 0.03837 0.01100
C 	C 	0.23876 0.59948 0.04631 0.10100
N 	N 	0.32587 0.57344 0.99213 -0.15300
N 	N 	0.37591 0.53574 0.86890 -0.09200
N 	N 	0.15732 0.49414 0.86566 -0.12000
H 	H 	0.25334 0.64342 0.08883 0.03200
C 	C 	0.34049 0.51773 0.80442 -0.02900
C 	C 	0.22854 0.49847 0.80281 0.04500
H 	H 	0.19813 0.48721 0.75158 0.00600
C 	C 	0.46244 0.05165 0.19889 0.07200
C 	C 	0.44812 0.02018 0.13107 0.03700
N 	N 	0.43773 0.08862 0.07155 -0.11900
C 	C 	0.45307 0.18515 0.07480 -0.08200
C 	C 	0.45739 0.21880 0.14381 0.06000
N 	N 	0.46138 0.15126 0.20463 -0.11000
N 	N 	0.48124 0.98179 0.25756 -0.07700
N 	N 	0.45345 0.92031 0.12425 -0.11400
H 	H 	0.46523 0.29633 0.14833 0.04900
C 	C 	0.48411 0.88170 0.25111 -0.04400
C 	C 	0.47092 0.85047 0.18293 0.02900
H 	H 	0.47239 0.77127 0.17711 0.03200
