data_crystal

_cell_length_a 12.26983
_cell_length_b 10.25513
_cell_length_c 67.61320
_cell_angle_alpha 89.49079
_cell_angle_beta  89.49612
_cell_angle_gamma 119.47887

_symmetry_space_group_name_	'P 1'
_symmetry_space_group_name_H-M	'P 1'

loop_
_symmetry_equiv_pos_as_xyz
  x,y,z

loop_
_atom_site_label
_atom_site_type_symbol
_atom_site_fract_x
_atom_site_fract_y
_atom_site_fract_z
_atom_site_charge
C 	C 	0.28261 0.12486 0.72400 0.28200
C 	C 	0.20358 0.07851 0.66502 0.27900
Ni	Ni	0.15113 0.85420 0.69754 1.11400
Ni	Ni	0.08054 0.12567 0.69969 1.11300
O 	O 	0.29924 0.04484 0.71013 -0.37300
O 	O 	0.21507 0.19176 0.72059 -0.38000
O 	O 	0.20040 0.95201 0.66952 -0.35800
O 	O 	0.21707 0.17370 0.67899 -0.37600
H 	H 	0.05233 0.93031 0.71842 0.13500
C 	C 	0.99339 0.44870 0.40903 0.29300
C 	C 	0.08831 0.14865 0.44520 0.30300
Ni	Ni	0.16371 0.31701 0.40634 1.11400
O 	O 	0.04693 0.53885 0.42393 -0.37200
O 	O 	0.99943 0.32351 0.40725 -0.38600
O 	O 	0.09913 0.13965 0.42561 -0.38600
O 	O 	0.18620 0.23975 0.45624 -0.37300
H 	H 	0.15679 0.40915 0.43616 0.13900
C 	C 	0.27437 0.67876 0.01930 0.29800
C 	C 	0.50943 0.96317 0.95979 0.31700
Ni	Ni	0.47817 0.98474 0.00280 1.11200
O 	O 	0.34799 0.62018 0.01628 -0.38000
O 	O 	0.30693 0.81787 0.01320 -0.37900
O 	O 	0.42817 0.93308 0.97466 -0.38700
C 	C 	0.78686 0.17771 0.18103 0.29500
C 	C 	0.73051 0.27229 0.23594 0.29200
C 	C 	0.91895 0.90977 0.19964 0.33000
C 	C 	0.82273 0.93081 0.25510 0.31200
Ni	Ni	0.86954 0.12419 0.22002 1.11700
O 	O 	0.95529 0.00522 0.21413 -0.40600
O 	O 	0.87592 0.16778 0.19059 -0.38100
O 	O 	0.87145 0.07292 0.24896 -0.40200
O 	O 	0.82605 0.28848 0.22499 -0.38200
C 	C 	0.16822 0.60272 0.03338 -0.09200
C 	C 	0.15011 0.68634 0.04808 0.02400
C 	C 	0.07207 0.61398 0.06436 -0.07000
C 	C 	0.00443 0.45737 0.06542 0.03600
C 	C 	0.01198 0.37348 0.04974 -0.08000
C 	C 	0.09593 0.44566 0.03396 0.02300
C 	C 	0.94412 0.38419 0.08378 -0.01000
C 	C 	0.89498 0.32753 0.09943 -0.02200
C 	C 	0.84543 0.26483 0.11873 0.04200
C 	C 	0.88713 0.17578 0.12818 -0.06900
C 	C 	0.86334 0.14234 0.14835 0.02000
C 	C 	0.79787 0.19826 0.15931 -0.08800
H 	H 	0.94144 0.13622 0.12003 0.05400
H 	H 	0.89641 0.07362 0.15547 0.04000
C 	C 	0.46639 0.01623 0.10025 -0.06100
C 	C 	0.37152 0.05452 0.09998 0.03500
C 	C 	0.33874 0.09497 0.08209 -0.06500
C 	C 	0.29615 0.03102 0.11740 -0.01500
C 	C 	0.23345 0.01102 0.13206 -0.02700
C 	C 	0.15748 0.98425 0.14950 0.04900
C 	C 	0.18055 0.10278 0.16200 -0.07800
C 	C 	0.10544 0.07741 0.17879 0.01700
C 	C 	0.00607 0.93293 0.18316 -0.09700
C 	C 	0.98550 0.81347 0.17087 0.03300
C 	C 	0.06030 0.83942 0.15400 -0.07900
H 	H 	0.49489 0.98951 0.11413 0.04100
H 	H 	0.26705 0.12751 0.08182 0.04600
H 	H 	0.25588 0.21492 0.15861 0.05300
H 	H 	0.12228 0.17079 0.18809 0.03200
H 	H 	0.91122 0.70090 0.17431 0.03400
H 	H 	0.04239 0.74710 0.14439 0.05200
C 	C 	0.75231 0.38924 0.25035 -0.09000
C 	C 	0.85046 0.53626 0.24694 0.01900
C 	C 	0.91000 0.62873 0.26295 -0.05900
C 	C 	0.87048 0.57481 0.28226 0.03900
C 	C 	0.75726 0.44131 0.28528 -0.06900
C 	C 	0.69827 0.34825 0.26932 0.01400
C 	C 	0.96044 0.62646 0.29779 -0.01000
C 	C 	0.02977 0.66019 0.31159 -0.02500
C 	C 	0.10964 0.67738 0.32787 0.04400
C 	C 	0.11976 0.76940 0.34376 -0.06700
H 	H 	0.88779 0.57363 0.23212 0.04200
H 	H 	0.99386 0.73570 0.26040 0.06200
H 	H 	0.72224 0.40226 0.30018 0.04500
H 	H 	0.61817 0.23918 0.27204 0.02500
H 	H 	0.08613 0.84890 0.34242 0.05300
C 	C 	0.91842 0.48346 0.39515 -0.08900
C 	C 	0.86740 0.39683 0.37821 0.01500
C 	C 	0.82150 0.44934 0.36303 -0.07000
C 	C 	0.82528 0.58769 0.36477 0.03700
C 	C 	0.86605 0.66764 0.38229 -0.07000
C 	C 	0.91392 0.61723 0.39730 0.01500
C 	C 	0.81020 0.65994 0.34756 -0.02000
C 	C 	0.79759 0.72068 0.33316 -0.02400
C 	C 	0.78788 0.79167 0.31539 0.05100
C 	C 	0.88726 0.93178 0.30946 -0.08500
C 	C 	0.89476 0.98327 0.28999 0.06600
C 	C 	0.80364 0.89369 0.27634 -0.10500
C 	C 	0.70032 0.75824 0.28273 0.02700
C 	C 	0.69158 0.70886 0.30226 -0.07400
H 	H 	0.86887 0.29294 0.37634 0.02700
H 	H 	0.78949 0.38651 0.34949 0.04500
H 	H 	0.86742 0.77354 0.38384 0.05600
H 	H 	0.95030 0.68419 0.41041 0.04800
H 	H 	0.96213 0.99685 0.31960 0.06000
H 	H 	0.97471 0.08839 0.28527 0.00600
H 	H 	0.61438 0.60072 0.30675 0.04800
C 	C 	0.97830 0.06136 0.45410 -0.11600
H 	H 	0.97623 0.04607 0.47006 0.07800
C 	C 	0.20763 0.12066 0.64402 -0.07800
C 	C 	0.10055 0.04188 0.63249 -0.00200
C 	C 	0.10913 0.05625 0.61184 -0.09500
H 	H 	0.01151 0.96563 0.63950 0.04900
H 	H 	0.02681 0.99012 0.60308 0.07000
C 	C 	0.47560 0.97960 0.94163 -0.17500
H 	H 	0.53993 0.00323 0.92924 0.10000
C 	C 	0.35243 0.15604 0.74266 -0.08600
C 	C 	0.47716 0.18568 0.74272 0.01600
H 	H 	0.52259 0.18195 0.72910 0.03900
H 	H 	0.16060 0.79895 0.75907 0.03700
O 	O 	0.03759 0.92275 0.70411 -0.70800
O 	O 	0.23232 0.45406 0.42770 -0.70200
C 	C 	0.50168 0.97175 0.04614 0.26800
O 	O 	0.47209 0.83031 0.04532 -0.37700
O 	O 	0.54054 0.05847 0.03034 -0.36400
O 	O 	0.62910 0.00097 0.96272 -0.35700
O 	O 	0.62040 0.17889 0.99256 -0.39000
O 	O 	0.55087 0.85976 0.00145 -0.72700
H 	H 	0.49129 0.78298 0.99249 0.16600
H 	H 	0.95693 0.25243 0.05019 0.06800
H 	H 	0.10644 0.37968 0.02245 0.03700
C 	C 	0.47647 0.02803 0.06443 -0.06800
C 	C 	0.51827 0.00196 0.08249 0.03000
C 	C 	0.39226 0.08345 0.06434 0.01100
H 	H 	0.58610 0.96333 0.08272 0.02100
C 	C 	0.15690 0.57868 0.32953 -0.07200
C 	C 	0.20368 0.56157 0.34742 0.01700
C 	C 	0.20177 0.64150 0.36406 -0.08600
C 	C 	0.16540 0.75120 0.36190 0.01900
H 	H 	0.15016 0.50802 0.31724 0.04600
H 	H 	0.16632 0.81661 0.37445 0.04000
C 	C 	0.22453 0.15126 0.60254 0.04400
C 	C 	0.32208 0.22078 0.63477 0.01600
H 	H 	0.19307 0.90506 0.54229 0.07500
C 	C 	0.29501 0.16110 0.76049 0.01300
C 	C 	0.54465 0.22423 0.76037 -0.07000
H 	H 	0.19807 0.13514 0.76072 0.02800
H 	H 	0.64126 0.24879 0.76024 0.05400
H 	H 	0.24850 0.89940 0.50737 0.06700
C 	C 	0.22328 0.59712 0.38383 0.29400
Ni	Ni	0.23821 0.64153 0.42814 1.11200
O 	O 	0.35829 0.26348 0.42927 -0.38600
O 	O 	0.23814 0.47902 0.38511 -0.38700
O 	O 	0.30899 0.28785 0.39793 -0.39800
H 	H 	0.36104 0.10639 0.05046 0.03000
H 	H 	0.23738 0.48204 0.34851 0.03300
C 	C 	0.33026 0.23686 0.61408 -0.07100
C 	C 	0.23661 0.15061 0.58120 -0.02800
C 	C 	0.24565 0.14919 0.56337 -0.02900
C 	C 	0.23157 0.00678 0.53340 -0.10200
H 	H 	0.40554 0.28164 0.64349 0.03400
C 	C 	0.26474 0.00404 0.51359 -0.02000
C 	C 	0.38631 0.28070 0.41053 0.34400
Ni	Ni	0.34096 0.41719 0.44452 1.12600
O 	O 	0.26271 0.69638 0.39805 -0.37500
O 	O 	0.20046 0.61711 0.45840 -0.37600
Ni	Ni	0.53517 0.74070 0.02346 1.11100
C 	C 	0.36244 0.19958 0.77807 -0.07000
C 	C 	0.48787 0.23330 0.77803 0.03800
H 	H 	0.50458 0.27737 0.38831 0.07100
C 	C 	0.25789 0.14247 0.54212 0.04500
C 	C 	0.32614 0.13770 0.50235 -0.08200
H 	H 	0.76054 0.43869 0.00576 0.08300
C 	C 	0.73737 0.23142 0.99769 0.35000
C 	C 	0.26949 0.59640 0.47150 0.33200
O 	O 	0.35684 0.56409 0.46588 -0.37100
Ni	Ni	0.70128 0.93840 0.98571 1.11300
O 	O 	0.79098 0.14768 0.99632 -0.37100
O 	O 	0.63333 0.73005 0.97495 -0.37300
H 	H 	0.41946 0.31237 0.60706 0.05000
C 	C 	0.55908 0.28180 0.79602 -0.02300
C 	C 	0.59150 0.60807 0.98639 0.32200
C 	C 	0.49144 0.28413 0.40410 -0.12900
C 	C 	0.30843 0.27372 0.53048 -0.06900
C 	C 	0.34118 0.27123 0.51061 0.01700
H 	H 	0.32673 0.37869 0.53698 0.05000
H 	H 	0.38374 0.37446 0.50199 0.03800
C 	C 	0.80706 0.37806 0.00072 -0.12300
H 	H 	0.49724 0.37837 0.94868 0.07900
H 	H 	0.51197 0.29389 0.84738 0.04700
H 	H 	0.62196 0.37105 0.87914 0.03800
H 	H 	0.05856 0.28370 0.75152 0.02500
O 	O 	0.59412 0.61613 0.00611 -0.38300
H 	H 	0.31735 0.20443 0.79168 0.04600
O 	O 	0.84774 0.40090 0.95963 -0.36600
O 	O 	0.70557 0.46271 0.93180 -0.39800
C 	C 	0.39067 0.14222 0.48335 0.29400
O 	O 	0.38757 0.01930 0.47683 -0.39000
O 	O 	0.42924 0.75340 0.43264 -0.39100
O 	O 	0.49511 0.58245 0.43003 -0.36500
O 	O 	0.71426 0.89165 0.03177 -0.39100
C 	C 	0.26966 0.64186 0.49007 -0.11800
H 	H 	0.19226 0.65649 0.49493 0.08100
C 	C 	0.60532 0.35169 0.41655 -0.11900
C 	C 	0.57704 0.46383 0.95646 -0.11500
C 	C 	0.56284 0.47709 0.97809 -0.10700
C 	C 	0.61587 0.32198 0.81132 -0.02000
C 	C 	0.61324 0.34735 0.84753 -0.06700
C 	C 	0.67572 0.39155 0.86554 0.00900
C 	C 	0.93580 0.49869 0.97145 0.33500
C 	C 	0.69076 0.52418 0.94782 0.34100
Ni	Ni	0.84377 0.41062 0.92930 1.12300
O 	O 	0.81063 0.38606 0.89980 -0.37900
O 	O 	0.78681 0.63975 0.95606 -0.37400
C 	C 	0.60588 0.30091 0.43488 0.32700
O 	O 	0.46762 0.27222 0.47497 -0.39300
O 	O 	0.68329 0.39669 0.44789 -0.37300
C 	C 	0.49808 0.70627 0.42354 0.30600
C 	C 	0.80902 0.89335 0.02284 0.30400
O 	O 	0.81022 0.88609 0.00344 -0.37900
H 	H 	0.78122 0.61566 0.03059 0.03400
H 	H 	0.77304 0.55469 0.06610 0.05100
C 	C 	0.56131 0.67056 0.38951 0.01300
H 	H 	0.57147 0.57754 0.39469 0.04100
H 	H 	0.55815 0.61286 0.35894 0.04800
C 	C 	0.38605 0.71549 0.50189 -0.11900
H 	H 	0.37748 0.69892 0.51784 0.07300
H 	H 	0.68229 0.45884 0.41184 0.08300
C 	C 	0.93022 0.46657 0.99080 -0.09700
H 	H 	0.52584 0.37658 0.98730 0.07500
C 	C 	0.68108 0.37034 0.82984 0.03700
O 	O 	0.95025 0.31293 0.92636 -0.36700
C 	C 	0.83686 0.70394 0.04077 0.01400
C 	C 	0.83095 0.66940 0.06097 -0.06900
H 	H 	0.76003 0.59570 0.14275 0.04700
C 	C 	0.54410 0.76227 0.40305 -0.07500
C 	C 	0.55644 0.69264 0.36916 -0.05000
H 	H 	0.36935 0.55481 0.30396 0.04300
H 	H 	0.00839 0.54023 0.99991 0.07300
C 	C 	0.80701 0.46022 0.86602 -0.07400
C 	C 	0.81209 0.44172 0.83017 -0.06600
C 	C 	0.36996 0.00836 0.93923 -0.05100
C 	C 	0.87111 0.48659 0.88528 0.27800
C 	C 	0.49012 0.83118 0.49418 0.33900
Ni	Ni	0.65915 0.36394 0.47843 1.11300
Ni	Ni	0.52918 0.02438 0.46008 1.11500
O 	O 	0.50729 0.84447 0.47504 -0.36200
O 	O 	0.51486 0.16681 0.44047 -0.38000
C 	C 	0.88856 0.85429 0.03469 -0.08800
H 	H 	0.65115 0.58939 0.17388 0.03800
C 	C 	0.54131 0.81156 0.36210 0.02100
H 	H 	0.67166 0.46593 0.54795 0.03600
C 	C 	0.87508 0.48967 0.84812 0.01500
H 	H 	0.77342 0.75183 0.89167 0.02900
C 	C 	0.77265 0.31233 0.12928 -0.07200
O 	O 	0.69635 0.18485 0.19078 -0.37400
C 	C 	0.74891 0.27932 0.14955 0.01700
O 	O 	0.79720 0.82156 0.24236 -0.38100
O 	O 	0.96457 0.08907 0.67707 -0.38900
H 	H 	0.20254 0.80747 0.04755 0.03100
O 	O 	0.01948 0.65839 0.68435 -0.38600
O 	O 	0.95283 0.11630 0.72004 -0.37100
H 	H 	0.06828 0.67971 0.07653 0.05000
H 	H 	0.07196 0.54101 0.65546 0.03300
C 	C 	0.01228 0.89422 0.90536 0.26400
C 	C 	0.25227 0.89596 0.93869 0.30600
C 	C 	0.03917 0.36272 0.91277 0.29900
Ni	Ni	0.97344 0.75763 0.94583 1.11600
Ni	Ni	0.10205 0.67323 0.90968 1.11300
O 	O 	0.94660 0.87173 0.92213 -0.35500
O 	O 	0.11160 0.87521 0.90480 -0.38500
O 	O 	0.01898 0.63417 0.96515 -0.38500
O 	O 	0.99503 0.57988 0.88552 -0.37900
O 	O 	0.16071 0.92299 0.94256 -0.38000
O 	O 	0.22816 0.76707 0.93144 -0.37000
O 	O 	0.13121 0.49961 0.91407 -0.38300
O 	O 	0.96086 0.61784 0.92654 -0.69900
H 	H 	0.90710 0.63239 0.91719 0.13800
C 	C 	0.91388 0.42423 0.49192 0.29400
C 	C 	0.63666 0.25706 0.52067 0.29300
C 	C 	0.76064 0.00755 0.45419 0.27600
Ni	Ni	0.73131 0.10607 0.49428 1.10700
O 	O 	0.85361 0.48129 0.48212 -0.35500
O 	O 	0.89663 0.29021 0.48738 -0.38100
O 	O 	0.75435 0.97965 0.47354 -0.33700
O 	O 	0.63121 0.35659 0.50893 -0.37700
O 	O 	0.72434 0.22096 0.51792 -0.38900
O 	O 	0.66758 0.01364 0.44488 -0.37800
O 	O 	0.57684 0.92815 0.50573 -0.38300
O 	O 	0.65508 0.17862 0.47585 -0.71300
H 	H 	0.72302 0.21858 0.46586 0.14600
C 	C 	0.93694 0.65873 0.67215 0.31300
C 	C 	0.98625 0.66444 0.73064 0.30100
C 	C 	0.84234 0.00338 0.67853 0.29900
C 	C 	0.90438 0.01588 0.73483 0.28100
Ni	Ni	0.86120 0.78577 0.70533 1.12300
O 	O 	0.79011 0.90815 0.69339 -0.37500
O 	O 	0.85685 0.70108 0.67817 -0.38400
O 	O 	0.85013 0.86948 0.73156 -0.37900
O 	O 	0.10293 0.72936 0.72375 -0.38100
O 	O 	0.89292 0.62770 0.71827 -0.37500
C 	C 	0.46545 0.77292 0.24238 0.28200
C 	C 	0.55112 0.76858 0.18309 0.29900
Ni	Ni	0.57360 0.01168 0.20964 1.10300
Ni	Ni	0.67448 0.77069 0.21991 1.12000
O 	O 	0.43741 0.83814 0.22765 -0.35600
O 	O 	0.52748 0.69959 0.23904 -0.37700
O 	O 	0.51885 0.87213 0.18528 -0.37000
O 	O 	0.54598 0.68588 0.19834 -0.37800
O 	O 	0.61437 0.17053 0.23161 -0.38400
O 	O 	0.80342 0.79834 0.19927 -0.39700
O 	O 	0.69757 0.96978 0.21914 -0.69600
H 	H 	0.67833 0.97659 0.23308 0.13500
H 	H 	0.69651 0.32124 0.15772 0.03400
H 	H 	0.73861 0.37959 0.12199 0.05000
C 	C 	0.58990 0.74278 0.16331 -0.08900
C 	C 	0.64886 0.65525 0.16145 0.01900
C 	C 	0.70988 0.65770 0.14373 -0.06900
C 	C 	0.70866 0.74309 0.12756 0.03900
C 	C 	0.64105 0.81995 0.12882 -0.07000
C 	C 	0.58221 0.82037 0.14661 0.01800
C 	C 	0.77635 0.75245 0.10956 -0.02300
C 	C 	0.83021 0.76588 0.09400 -0.02300
C 	C 	0.88659 0.78565 0.07461 0.03900
C 	C 	0.96969 0.93101 0.06758 -0.07500
C 	C 	0.97401 0.96400 0.04733 0.00300
H 	H 	0.63795 0.88402 0.11624 0.04700
H 	H 	0.53470 0.88548 0.14757 0.03700
H 	H 	0.01996 0.02090 0.07788 0.05200
H 	H 	0.02841 0.07894 0.04215 0.03600
C 	C 	0.41968 0.77141 0.26270 -0.08700
C 	C 	0.37851 0.64192 0.27456 0.01500
C 	C 	0.39174 0.65369 0.29511 -0.06700
C 	C 	0.44312 0.79434 0.30397 0.03100
C 	C 	0.46729 0.92035 0.29244 -0.03300
C 	C 	0.45237 0.90776 0.27186 0.02700
C 	C 	0.48089 0.81021 0.32443 -0.01400
C 	C 	0.51020 0.81545 0.34158 -0.00400
C 	C 	0.54176 0.91564 0.37547 -0.00300
C 	C 	0.54513 0.89244 0.39589 0.00300
H 	H 	0.34776 0.53436 0.26774 0.03300
H 	H 	0.50219 0.02870 0.29924 0.01900
H 	H 	0.47457 0.00580 0.26294 0.01400
H 	H 	0.53319 0.01015 0.37015 0.01000
H 	H 	0.53886 0.96939 0.40610 0.05900
H 	H 	0.63073 0.68681 0.27229 0.03400
C 	C 	0.85972 0.02341 0.44382 -0.11000
H 	H 	0.85951 0.03126 0.42777 0.07700
C 	C 	0.57985 0.23154 0.54043 -0.07600
C 	C 	0.61901 0.35160 0.55347 0.02100
C 	C 	0.60237 0.32392 0.57386 -0.07200
C 	C 	0.54574 0.17631 0.58119 0.05000
C 	C 	0.49048 0.05706 0.56805 -0.09300
C 	C 	0.50945 0.08439 0.54773 -0.01500
C 	C 	0.57317 0.14801 0.60081 -0.03300
C 	C 	0.59458 0.12011 0.61715 -0.01300
C 	C 	0.62966 0.08534 0.63580 0.01700
C 	C 	0.60365 0.93831 0.63979 -0.04600
C 	C 	0.66981 0.91044 0.65438 0.03100
C 	C 	0.76252 0.02964 0.66499 -0.10400
C 	C 	0.78143 0.17494 0.66206 0.02400
C 	C 	0.71389 0.20218 0.64766 -0.06300
H 	H 	0.64292 0.41707 0.58395 0.04800
H 	H 	0.44256 0.94257 0.57361 0.07400
H 	H 	0.47561 0.99091 0.53773 0.06400
H 	H 	0.53770 0.84699 0.63079 0.04800
H 	H 	0.65304 0.79740 0.65681 0.02900
H 	H 	0.85030 0.26709 0.67062 0.03900
H 	H 	0.73194 0.31530 0.64498 0.05500
C 	C 	0.96854 0.48829 0.51123 -0.07400
C 	C 	0.01949 0.41885 0.52312 -0.00000
C 	C 	0.03427 0.44733 0.54337 -0.05500
C 	C 	0.00025 0.54685 0.55172 0.01200
C 	C 	0.96396 0.62922 0.53952 -0.04800
C 	C 	0.95044 0.60226 0.51928 0.01200
C 	C 	0.98733 0.55092 0.57276 0.00200
C 	C 	0.97498 0.55791 0.59030 -0.03100
C 	C 	0.95677 0.56881 0.61106 0.06000
C 	C 	0.87305 0.61580 0.61744 -0.07600
C 	C 	0.86253 0.63909 0.63749 0.02000
C 	C 	0.93640 0.61607 0.65136 -0.08500
C 	C 	0.01640 0.56255 0.64495 0.01300
C 	C 	0.02643 0.53912 0.62485 -0.08300
H 	H 	0.04103 0.33697 0.51692 0.03100
H 	H 	0.06622 0.38662 0.55268 0.04200
H 	H 	0.94093 0.70955 0.54585 0.04800
H 	H 	0.91798 0.66308 0.51013 0.04300
H 	H 	0.81808 0.63755 0.60682 0.05000
H 	H 	0.79955 0.67898 0.64216 0.03600
H 	H 	0.08994 0.50044 0.61999 0.05300
H 	H 	0.38677 0.12124 0.94158 0.06800
C 	C 	0.89249 0.06629 0.75470 -0.07600
C 	C 	0.98398 0.20687 0.76139 0.02300
C 	C 	0.98361 0.24503 0.78118 -0.04600
C 	C 	0.89208 0.14303 0.79440 0.02500
C 	C 	0.79585 0.00705 0.78747 -0.04900
C 	C 	0.79567 0.96882 0.76768 0.00600
C 	C 	0.90725 0.16886 0.81531 -0.00400
C 	C 	0.92362 0.19491 0.83270 -0.03000
C 	C 	0.95273 0.22921 0.85320 0.07600
C 	C 	0.07624 0.32824 0.85844 -0.10300
C 	C 	0.10803 0.35571 0.87829 0.03700
C 	C 	0.01508 0.29070 0.89319 -0.12200
C 	C 	0.89334 0.18105 0.88798 0.06100
C 	C 	0.86148 0.15358 0.86799 -0.08100
H 	H 	0.05767 0.35117 0.78641 0.03300
H 	H 	0.72426 0.92808 0.79759 0.04000
H 	H 	0.72248 0.86161 0.76261 0.04000
H 	H 	0.14813 0.38296 0.84709 0.05100
H 	H 	0.20392 0.43395 0.88208 0.02500
H 	H 	0.82190 0.12340 0.89929 0.03200
H 	H 	0.76645 0.07318 0.86405 0.06100
H 	H 	0.97635 0.54470 0.84812 0.04200
H 	H 	0.86529 0.45976 0.81656 0.05300
C 	C 	0.96724 0.91961 0.88660 -0.09600
C 	C 	0.05719 0.00750 0.87220 0.06000
C 	C 	0.03154 0.97838 0.85225 -0.13400
C 	C 	0.91325 0.86762 0.84639 0.07300
C 	C 	0.81738 0.79418 0.86057 -0.08500
C 	C 	0.84445 0.81962 0.88073 0.02100
C 	C 	0.89956 0.81163 0.82673 -0.03000
C 	C 	0.90243 0.77522 0.80998 -0.01800
C 	C 	0.92177 0.73767 0.79040 0.05200
C 	C 	0.82001 0.64594 0.77860 -0.07100
C 	C 	0.84076 0.61079 0.75950 0.02000
C 	C 	0.96382 0.67002 0.75201 -0.08300
C 	C 	0.06522 0.75471 0.76441 0.00500
C 	C 	0.04409 0.78935 0.78343 -0.08500
H 	H 	0.15125 0.08837 0.87656 0.02900
H 	H 	0.10538 0.03814 0.84133 0.06700
H 	H 	0.72477 0.70988 0.85610 0.05300
H 	H 	0.72511 0.60486 0.78400 0.05100
H 	H 	0.76140 0.54309 0.75027 0.03300
H 	H 	0.12314 0.85834 0.79267 0.04700
