data_crystal

_cell_length_a 15.02938
_cell_length_b 14.42034
_cell_length_c 22.23022
_cell_angle_alpha 89.99673
_cell_angle_beta  89.98401
_cell_angle_gamma 83.73442

_symmetry_space_group_name_	'P 1'
_symmetry_space_group_name_H-M	'P 1'

loop_
_symmetry_equiv_pos_as_xyz
  x,y,z

loop_
_atom_site_label
_atom_site_type_symbol
_atom_site_fract_x
_atom_site_fract_y
_atom_site_fract_z
_atom_site_charge
Co	Co	0.45252 0.40876 0.25529 1.18000
O 	O 	0.33126 0.41586 0.29973 -0.39200
Co	Co	0.60715 0.49196 0.17097 1.18100
O 	O 	0.49960 0.53496 0.24355 -0.47400
O 	O 	0.53878 0.40949 0.12371 -0.43600
O 	O 	0.44858 0.40672 0.35236 -0.36300
C 	C 	0.45127 0.41768 0.12215 0.33600
O 	O 	0.51304 0.61722 0.16547 -0.36600
C 	C 	0.76351 0.54309 0.15155 0.28300
C 	C 	0.61211 0.30562 0.23615 0.29500
O 	O 	0.71969 0.49395 0.11648 -0.37900
O 	O 	0.71739 0.56567 0.19957 -0.34700
O 	O 	0.53486 0.27777 0.24961 -0.36400
O 	O 	0.60814 0.39601 0.23962 -0.45600
O 	O 	0.40532 0.40271 0.17127 -0.52800
C 	C 	0.36202 0.41429 0.35354 0.29100
C 	C 	0.46420 0.60512 0.21273 0.29300
H 	H 	0.34186 0.38569 0.16732 0.16600
Co	Co	0.41168 0.47770 0.74818 1.18300
O 	O 	0.39747 0.36085 0.69643 -0.38800
Co	Co	0.51279 0.61183 0.84152 1.18200
O 	O 	0.53925 0.49952 0.76756 -0.47400
O 	O 	0.41466 0.55827 0.88251 -0.43800
O 	O 	0.41911 0.48496 0.65163 -0.35400
C 	C 	0.40424 0.46916 0.88150 0.33500
O 	O 	0.61280 0.49267 0.84911 -0.36400
C 	C 	0.59865 0.75149 0.86755 0.28400
C 	C 	0.33843 0.65280 0.77192 0.29900
O 	O 	0.54000 0.71746 0.90064 -0.38200
O 	O 	0.60910 0.70581 0.81753 -0.34600
O 	O 	0.29999 0.58141 0.75362 -0.36700
O 	O 	0.42528 0.63531 0.77029 -0.45200
O 	O 	0.38984 0.42654 0.83004 -0.52900
C 	C 	0.40561 0.39861 0.64462 0.28900
C 	C 	0.59497 0.44799 0.80054 0.29800
H 	H 	0.36242 0.36552 0.83079 0.16700
Co	Co	0.00150 0.85941 0.26771 1.14200
O 	O 	0.00475 0.73577 0.21978 -0.39000
Co	Co	0.07868 0.01876 0.35573 1.16300
O 	O 	0.12246 0.90971 0.28059 -0.48600
O 	O 	0.01886 0.93846 0.41162 -0.48400
O 	O 	0.99738 0.86159 0.17088 -0.27600
C 	C 	0.97171 0.87038 0.39647 0.40100
O 	O 	0.20095 0.92614 0.35922 -0.36400
C 	C 	0.12612 0.18289 0.37441 0.28500
C 	C 	0.89770 0.02065 0.29193 0.28200
O 	O 	0.08119 0.13607 0.41031 -0.39400
O 	O 	0.14409 0.13627 0.32536 -0.36900
O 	O 	0.87351 0.94042 0.27570 -0.35400
O 	O 	0.98414 0.01947 0.28820 -0.42100
O 	O 	0.99749 0.81332 0.35176 -0.52000
C 	C 	0.00088 0.77190 0.16681 0.15600
C 	C 	0.18967 0.87434 0.31266 0.29700
H 	H 	0.99195 0.74435 0.35618 0.18800
Co	Co	0.89523 0.99563 0.73348 1.19000
O 	O 	0.78731 0.97130 0.78731 -0.38200
Co	Co	0.01931 0.10378 0.63980 1.15000
O 	O 	0.91567 0.12999 0.71758 -0.44400
O 	O 	0.96835 0.00463 0.59333 -0.38700
O 	O 	0.90805 0.99522 0.82991 -0.34200
C 	C 	0.89203 0.96973 0.60291 0.34200
O 	O 	0.90593 0.20896 0.63645 -0.34300
C 	C 	0.15522 0.18977 0.61470 0.29000
C 	C 	0.06354 0.92097 0.70609 0.23200
O 	O 	0.12100 0.13127 0.58070 -0.39000
O 	O 	0.11214 0.20138 0.66493 -0.36900
O 	O 	0.99448 0.87935 0.72162 -0.30400
O 	O 	0.04459 0.01087 0.70920 -0.48300
O 	O 	0.84278 0.99081 0.65129 -0.53300
C 	C 	0.82683 0.97687 0.83837 0.28700
C 	C 	0.86563 0.18979 0.68590 0.29200
H 	H 	0.77600 0.98642 0.64944 0.16800
C 	C 	0.85983 0.91028 0.55545 -0.10900
C 	C 	0.81320 0.95228 0.50539 0.05400
C 	C 	0.83004 0.91314 0.44798 -0.02200
C 	C 	0.90373 0.84610 0.43992 -0.10200
C 	C 	0.93137 0.78958 0.48999 0.01500
C 	C 	0.90557 0.82096 0.54803 0.00500
H 	H 	0.79921 0.94833 0.40890 0.03500
H 	H 	0.93109 0.78189 0.58717 0.04500
C 	C 	0.75948 0.04676 0.51061 -0.07400
C 	C 	0.98721 0.69667 0.48207 0.11000
C 	C 	0.81760 0.12511 0.49737 -0.14100
H 	H 	0.72901 0.05690 0.55595 0.03500
H 	H 	0.70310 0.05099 0.47811 0.03400
H 	H 	0.85993 0.13729 0.53665 0.07000
H 	H 	0.77414 0.19053 0.48753 0.05200
H 	H 	0.86267 0.10798 0.45847 0.07100
C 	C 	0.92958 0.62259 0.46023 -0.20300
H 	H 	0.01899 0.67274 0.52534 -0.04800
H 	H 	0.04293 0.70277 0.45014 -0.04500
H 	H 	0.87560 0.61384 0.49324 0.07500
H 	H 	0.97148 0.55479 0.45535 0.08800
H 	H 	0.89912 0.64232 0.41589 0.07600
C 	C 	0.80261 0.91931 0.88874 -0.09000
C 	C 	0.82762 0.82237 0.88498 0.05800
C 	C 	0.76013 0.76243 0.88509 -0.03100
C 	C 	0.67082 0.79949 0.89385 -0.07500
C 	C 	0.65305 0.89045 0.91791 0.03900
C 	C 	0.72200 0.94885 0.91797 -0.02300
H 	H 	0.77613 0.68899 0.87484 0.05100
H 	H 	0.70769 0.02110 0.93125 0.02700
C 	C 	0.92485 0.78302 0.88064 -0.10900
C 	C 	0.55999 0.92868 0.93761 -0.07500
C 	C 	0.96650 0.77050 0.94309 -0.03300
H 	H 	0.96400 0.82885 0.85358 0.08100
H 	H 	0.93094 0.71425 0.85750 0.06800
H 	H 	0.96572 0.83907 0.96596 0.05000
H 	H 	0.03703 0.73904 0.93902 -0.01600
H 	H 	0.92929 0.72347 0.97081 0.04400
C 	C 	0.50677 0.97452 0.88506 -0.12700
H 	H 	0.56411 0.98145 0.97370 0.03900
H 	H 	0.52366 0.87286 0.95725 0.05300
H 	H 	0.53890 0.03552 0.86855 0.04800
H 	H 	0.43774 0.99825 0.90025 0.04600
H 	H 	0.50252 0.92467 0.84741 0.05700
C 	C 	0.66035 0.37568 0.77271 -0.09600
C 	C 	0.72347 0.31791 0.80724 0.05000
C 	C 	0.79530 0.26607 0.77757 -0.03100
C 	C 	0.79593 0.25672 0.71452 -0.08400
C 	C 	0.72632 0.30588 0.68042 0.03700
C 	C 	0.66100 0.36657 0.70970 -0.02500
H 	H 	0.84946 0.23060 0.80379 0.05400
H 	H 	0.61050 0.40727 0.68302 0.04100
C 	C 	0.71442 0.30879 0.87515 -0.07600
C 	C 	0.72112 0.29628 0.61276 -0.06200
C 	C 	0.72017 0.20705 0.89552 -0.13700
H 	H 	0.64934 0.34194 0.89202 0.05400
H 	H 	0.76810 0.34342 0.89746 0.05500
H 	H 	0.67320 0.16867 0.86908 0.05200
H 	H 	0.70169 0.20417 0.94381 0.05100
H 	H 	0.78929 0.17207 0.89059 0.06000
C 	C 	0.76975 0.36994 0.58090 -0.14100
H 	H 	0.65009 0.30569 0.59818 0.03500
H 	H 	0.74713 0.22526 0.59797 0.04300
H 	H 	0.73483 0.44061 0.58958 0.06100
H 	H 	0.77016 0.35713 0.53165 0.05500
H 	H 	0.83991 0.36801 0.59670 0.07900
C 	C 	0.35231 0.36941 0.59465 -0.08500
C 	C 	0.37131 0.27706 0.57401 0.04300
C 	C 	0.30270 0.21857 0.57447 -0.02400
C 	C 	0.21615 0.25439 0.59192 -0.07900
C 	C 	0.19384 0.35237 0.59429 0.03600
C 	C 	0.26334 0.40998 0.59172 -0.02400
H 	H 	0.31817 0.14440 0.56649 0.03600
H 	H 	0.24860 0.48443 0.59887 0.03800
C 	C 	0.46599 0.23775 0.55879 -0.07100
C 	C 	0.09749 0.39576 0.59928 -0.04000
C 	C 	0.51048 0.18019 0.61048 -0.13700
H 	H 	0.50682 0.29497 0.54710 0.04100
H 	H 	0.46527 0.19221 0.51855 0.03500
H 	H 	0.51885 0.22485 0.65028 0.06100
H 	H 	0.57774 0.14846 0.59607 0.04600
H 	H 	0.47022 0.12311 0.62332 0.05500
C 	C 	0.04680 0.38731 0.54048 -0.23900
H 	H 	0.09487 0.47108 0.61077 0.02200
H 	H 	0.06201 0.36358 0.63622 0.03400
H 	H 	0.07721 0.42674 0.50455 0.06400
H 	H 	0.97620 0.41759 0.54622 0.11700
H 	H 	0.04756 0.31314 0.52681 0.07300
C 	C 	0.29448 0.74707 0.76016 -0.09300
C 	C 	0.23737 0.79262 0.80400 0.03900
C 	C 	0.16836 0.86019 0.78588 -0.03400
C 	C 	0.15283 0.87879 0.72461 -0.07100
C 	C 	0.21700 0.84322 0.68181 0.02600
C 	C 	0.28863 0.77856 0.70028 -0.01600
H 	H 	0.12250 0.89318 0.81915 0.03100
H 	H 	0.33470 0.74611 0.66695 0.04300
C 	C 	0.25010 0.77050 0.87028 -0.07600
C 	C 	0.20708 0.86920 0.61599 -0.06600
C 	C 	0.32155 0.82534 0.89725 -0.13500
H 	H 	0.26884 0.69477 0.87773 0.04400
H 	H 	0.18640 0.78859 0.89519 0.03100
H 	H 	0.38531 0.81079 0.87211 0.05300
H 	H 	0.33333 0.80472 0.94496 0.05100
H 	H 	0.29941 0.90135 0.89543 0.05000
C 	C 	0.15804 0.79852 0.58160 -0.13700
H 	H 	0.27424 0.87186 0.59548 0.04200
H 	H 	0.17058 0.93997 0.61059 0.03500
H 	H 	0.19768 0.72882 0.58204 0.05300
H 	H 	0.14807 0.82143 0.53415 0.05400
H 	H 	0.09155 0.79277 0.60209 0.04500
C 	C 	0.40556 0.68394 0.24136 -0.08900
C 	C 	0.38283 0.68326 0.30354 0.03500
C 	C 	0.30513 0.73830 0.32308 -0.02800
C 	C 	0.26495 0.81084 0.28705 -0.10000
C 	C 	0.30300 0.82676 0.22989 0.04500
C 	C 	0.36820 0.75890 0.20580 -0.03400
H 	H 	0.28139 0.73067 0.36869 0.03200
H 	H 	0.39287 0.76737 0.16056 0.04200
C 	C 	0.45133 0.64769 0.35065 -0.06700
C 	C 	0.28326 0.91917 0.19744 -0.07500
C 	C 	0.53071 0.70545 0.35148 -0.13600
H 	H 	0.47555 0.57354 0.34436 0.05400
H 	H 	0.42045 0.65155 0.39620 0.04000
H 	H 	0.57689 0.68101 0.38859 0.05700
H 	H 	0.50726 0.78035 0.35891 0.05900
H 	H 	0.56827 0.69762 0.30842 0.07100
C 	C 	0.22243 0.91040 0.14332 -0.13100
H 	H 	0.34717 0.94275 0.18139 0.04200
H 	H 	0.25312 0.97536 0.22762 0.05500
H 	H 	0.16310 0.87584 0.15642 0.05200
H 	H 	0.25919 0.86908 0.10721 0.04500
H 	H 	0.19955 0.98083 0.12535 0.04700
C 	C 	0.82869 0.60189 0.12751 -0.06300
C 	C 	0.91970 0.56691 0.12010 0.00200
C 	C 	0.98276 0.63057 0.11082 0.06000
C 	C 	0.95623 0.72603 0.11838 -0.02800
C 	C 	0.86613 0.75781 0.10602 0.03100
C 	C 	0.80142 0.69562 0.11372 -0.02400
H 	H 	0.05347 0.60579 0.10931 -0.02600
H 	H 	0.73083 0.71993 0.10984 0.04200
C 	C 	0.94978 0.46323 0.12144 0.04200
C 	C 	0.84015 0.85412 0.08050 -0.06300
C 	C 	0.93919 0.41952 0.05970 -0.18000
H 	H 	0.91151 0.42725 0.15535 0.03100
H 	H 	0.02127 0.45062 0.13508 -0.03200
H 	H 	0.86793 0.42831 0.04548 0.07900
H 	H 	0.96227 0.34376 0.06172 0.07800
H 	H 	0.98009 0.45236 0.02576 0.08300
C 	C 	0.77821 0.91461 0.12274 -0.14100
H 	H 	0.80554 0.84753 0.03677 0.04300
H 	H 	0.90049 0.89009 0.07129 0.05800
H 	H 	0.71264 0.88645 0.12708 0.06000
H 	H 	0.76608 0.98641 0.10427 0.05600
H 	H 	0.80895 0.91794 0.16788 0.07500
C 	C 	0.69591 0.24651 0.25217 -0.08200
C 	C 	0.71504 0.22013 0.31261 0.04800
C 	C 	0.78218 0.14679 0.32481 -0.02900
C 	C 	0.83780 0.10723 0.27900 -0.08500
C 	C 	0.82636 0.14253 0.21948 0.06900
C 	C 	0.75387 0.21028 0.20642 -0.04100
H 	H 	0.78972 0.11937 0.36988 0.03100
H 	H 	0.74260 0.23440 0.16057 0.03500
C 	C 	0.66733 0.27166 0.36476 -0.07000
C 	C 	0.89418 0.11397 0.17065 -0.13600
C 	C 	0.59599 0.21649 0.39161 -0.13500
H 	H 	0.63645 0.34216 0.35166 0.05900
H 	H 	0.71700 0.28304 0.40029 0.04100
H 	H 	0.54069 0.21213 0.35911 0.06600
H 	H 	0.56870 0.25205 0.43299 0.05400
H 	H 	0.62467 0.14480 0.40373 0.05000
C 	C 	0.97136 0.17449 0.17240 0.07400
H 	H 	0.86184 0.12153 0.12568 0.05700
H 	H 	0.92094 0.03952 0.17465 0.07900
H 	H 	0.94599 0.24887 0.16507 0.02400
H 	H 	0.02007 0.15224 0.13626 -0.04300
H 	H 	0.00651 0.16744 0.21636 -0.02700
C 	C 	0.18663 0.24736 0.39795 -0.08300
C 	C 	0.27667 0.21621 0.41279 0.04500
C 	C 	0.33820 0.28229 0.41770 -0.02500
C 	C 	0.31177 0.37495 0.40168 -0.08500
C 	C 	0.22011 0.40764 0.40650 0.04000
C 	C 	0.15725 0.34287 0.40089 -0.02600
H 	H 	0.40841 0.25915 0.42370 0.03700
H 	H 	0.08688 0.36679 0.39491 0.01800
C 	C 	0.30855 0.11364 0.42105 -0.06300
C 	C 	0.18959 0.51139 0.40412 -0.06800
C 	C 	0.35729 0.07255 0.36518 -0.15000
H 	H 	0.25243 0.07268 0.43233 0.04800
H 	H 	0.35553 0.10514 0.45971 0.03700
H 	H 	0.31346 0.08084 0.32497 0.07200
H 	H 	0.37759 0.99697 0.37227 0.06900
H 	H 	0.41843 0.10732 0.35663 0.05700
C 	C 	0.22316 0.56274 0.45822 -0.14000
H 	H 	0.11538 0.52433 0.40323 0.02000
H 	H 	0.21386 0.54203 0.36214 0.04200
H 	H 	0.19129 0.54046 0.50002 0.05100
H 	H 	0.20506 0.63896 0.45268 0.04800
H 	H 	0.29711 0.54943 0.46237 0.06000
C 	C 	0.40888 0.40811 0.06286 -0.10600
C 	C 	0.34207 0.47670 0.04066 0.03100
C 	C 	0.32473 0.48025 0.97864 -0.01400
C 	C 	0.38109 0.42620 0.93887 -0.11300
C 	C 	0.43461 0.34741 0.96141 0.04200
C 	C 	0.44688 0.33819 0.02374 -0.02200
H 	H 	0.27498 0.53331 0.96085 0.03200
H 	H 	0.49061 0.27981 0.04153 0.03900
C 	C 	0.29047 0.54786 0.08145 -0.06900
C 	C 	0.47013 0.26838 0.92033 -0.07600
C 	C 	0.31394 0.64633 0.06869 -0.14100
H 	H 	0.30167 0.53323 0.12983 0.03700
H 	H 	0.21766 0.54608 0.07350 0.03000
H 	H 	0.38676 0.64990 0.07496 0.06500
H 	H 	0.27621 0.69577 0.10014 0.04900
H 	H 	0.29496 0.66820 0.02212 0.05100
C 	C 	0.39744 0.20502 0.90694 -0.13400
H 	H 	0.52786 0.22586 0.94158 0.03700
H 	H 	0.49597 0.29516 0.87772 0.03800
H 	H 	0.38941 0.15843 0.94590 0.04700
H 	H 	0.41648 0.16208 0.86663 0.04600
H 	H 	0.33193 0.24592 0.89762 0.04700
