data_crystal

_cell_length_a 12.03469
_cell_length_b 7.70012
_cell_length_c 38.65497
_cell_angle_alpha 90.00000
_cell_angle_beta  90.00000
_cell_angle_gamma 90.07224

_symmetry_space_group_name_	'P 1'
_symmetry_space_group_name_H-M	'P 1'

loop_
_symmetry_equiv_pos_as_xyz
  x,y,z

loop_
_atom_site_label
_atom_site_type_symbol
_atom_site_fract_x
_atom_site_fract_y
_atom_site_fract_z
_atom_site_charge
Co	Co	0.12999 0.77341 0.00579 1.18200
Co	Co	0.14908 0.13877 0.01588 1.18400
Co	Co	0.88607 0.18043 0.00490 1.19000
O 	O 	0.20589 0.94319 0.01887 -0.77600
O 	O 	0.80482 0.00462 0.00287 -0.78600
O 	O 	0.99927 0.96460 0.02411 -0.55900
O 	O 	0.40020 0.07550 0.05886 -0.36700
O 	O 	0.58756 0.83524 0.01802 -0.44400
O 	O 	0.20853 0.59792 0.03765 -0.38500
O 	O 	0.77698 0.32347 0.03435 -0.37800
O 	O 	0.24781 0.24872 0.05356 -0.37600
O 	O 	0.74181 0.66565 0.01501 -0.38300
O 	O 	0.38150 0.70965 0.04703 -0.35400
C 	C 	0.66075 0.73396 0.03309 0.35100
O 	O 	0.60586 0.20163 0.02723 -0.37400
C 	C 	0.31456 0.15483 0.07272 0.31400
C 	C 	0.28779 0.64622 0.05900 0.31700
C 	C 	0.68668 0.25441 0.04749 0.32400
C 	C 	0.29497 0.14230 0.10910 -0.11500
C 	C 	0.65984 0.71364 0.07008 -0.11500
C 	C 	0.27159 0.63054 0.09566 -0.10500
C 	C 	0.67897 0.22990 0.08409 -0.11200
C 	C 	0.27497 0.12904 0.13947 0.04400
C 	C 	0.66434 0.69912 0.10115 0.06500
H 	H 	0.08811 0.22988 0.17185 0.03200
H 	H 	0.51967 0.27007 0.16168 0.04200
H 	H 	0.51194 0.79074 0.14866 0.04600
C 	C 	0.67917 0.20699 0.11487 0.05500
C 	C 	0.25690 0.62351 0.12649 0.04700
C 	C 	0.15026 0.17557 0.18900 -0.03300
C 	C 	0.25096 0.11332 0.17569 -0.00900
C 	C 	0.58721 0.73739 0.15975 -0.02700
C 	C 	0.59646 0.22366 0.17287 -0.02900
C 	C 	0.67310 0.67953 0.13819 -0.00900
H 	H 	0.07947 0.74660 0.16089 0.03200
C 	C 	0.68510 0.17642 0.15147 -0.01000
C 	C 	0.23817 0.61609 0.16327 -0.00800
C 	C 	0.14153 0.68807 0.17751 -0.03200
H 	H 	0.53948 0.25507 0.22518 0.03700
H 	H 	0.05593 0.23005 0.23492 0.03200
C 	C 	0.13160 0.17450 0.22470 -0.04400
H 	H 	0.53318 0.77758 0.21220 0.03900
H 	H 	0.39367 0.48873 0.17416 0.04100
C 	C 	0.60757 0.21394 0.20882 -0.04400
C 	C 	0.59916 0.72959 0.19574 -0.04200
C 	C 	0.77026 0.61078 0.15278 -0.02800
C 	C 	0.33023 0.04201 0.19791 -0.03800
H 	H 	0.83683 0.56493 0.13627 0.04200
H 	H 	0.40695 0.99046 0.18765 0.04400
C 	C 	0.31857 0.54312 0.18497 -0.03100
C 	C 	0.78327 0.11183 0.16599 -0.02900
H 	H 	0.85179 0.07328 0.14950 0.03600
C 	C 	0.12642 0.68984 0.21339 -0.04200
H 	H 	0.05401 0.75285 0.22421 0.03300
H 	H 	0.55426 0.53132 0.25839 0.03600
C 	C 	0.21350 0.11058 0.24718 0.00800
C 	C 	0.69693 0.66253 0.21044 0.01100
H 	H 	0.02625 0.52581 0.27382 0.03200
C 	C 	0.78187 0.60105 0.18874 -0.04100
C 	C 	0.31214 0.04159 0.23351 -0.04500
C 	C 	0.70753 0.15533 0.22353 0.01000
C 	C 	0.30224 0.54017 0.22074 -0.04100
H 	H 	0.35518 0.27301 0.29081 0.03800
C 	C 	0.79455 0.10110 0.20185 -0.04300
C 	C 	0.20687 0.61610 0.23525 0.00800
H 	H 	0.36363 0.47905 0.23717 0.03600
C 	C 	0.62803 0.58801 0.26974 -0.04200
H 	H 	0.85676 0.54579 0.19972 0.04200
H 	H 	0.37603 0.99223 0.25056 0.04000
C 	C 	0.28471 0.21502 0.30392 -0.04100
C 	C 	0.09448 0.57487 0.28925 -0.04500
C 	C 	0.71108 0.65962 0.24853 0.00800
C 	C 	0.72350 0.15951 0.26145 0.00800
H 	H 	0.87903 0.29965 0.25887 0.04100
C 	C 	0.20122 0.13092 0.28492 0.00900
H 	H 	0.57041 0.02383 0.27309 0.03600
H 	H 	0.87165 0.05396 0.21279 0.04000
C 	C 	0.19428 0.62633 0.27332 0.00900
C 	C 	0.81919 0.23643 0.27554 -0.04000
C 	C 	0.64365 0.08631 0.28361 -0.04100
H 	H 	0.57635 0.53141 0.32179 0.04000
H 	H 	0.00678 0.54344 0.33744 0.03400
C 	C 	0.64050 0.58839 0.30569 -0.03100
C 	C 	0.08361 0.58355 0.32529 -0.03200
H 	H 	0.34422 0.28583 0.35429 0.04400
C 	C 	0.27839 0.22258 0.33986 -0.02900
C 	C 	0.10901 0.05990 0.30223 -0.04600
C 	C 	0.80644 0.73230 0.26379 -0.04000
H 	H 	0.04416 0.99443 0.28780 0.03700
H 	H 	0.87023 0.79041 0.24785 0.04100
C 	C 	0.83610 0.23646 0.31126 -0.03100
C 	C 	0.65916 0.09161 0.31945 -0.03100
C 	C 	0.28271 0.68625 0.29383 -0.04200
H 	H 	0.91015 0.29558 0.32181 0.04500
H 	H 	0.36056 0.72438 0.28201 0.03800
H 	H 	0.59619 0.03776 0.33639 0.04200
C 	C 	0.73559 0.66137 0.32078 -0.00600
C 	C 	0.75571 0.16621 0.33333 -0.00700
C 	C 	0.18811 0.14795 0.35722 -0.00800
C 	C 	0.17262 0.64087 0.34557 -0.01000
C 	C 	0.81789 0.73494 0.29979 -0.03000
C 	C 	0.10246 0.06864 0.33838 -0.03100
C 	C 	0.27166 0.69402 0.32972 -0.02800
C 	C 	0.74785 0.66128 0.35786 0.04900
C 	C 	0.76591 0.18904 0.37012 0.05300
C 	C 	0.16886 0.62399 0.38260 0.05700
H 	H 	0.03227 0.01079 0.35166 0.03900
H 	H 	0.88947 0.79749 0.31133 0.04500
C 	C 	0.18739 0.14763 0.39440 0.05500
H 	H 	0.34117 0.73765 0.34530 0.04300
C 	C 	0.75334 0.65728 0.38900 -0.09900
C 	C 	0.17693 0.61416 0.41359 -0.11700
C 	C 	0.77190 0.20623 0.40104 -0.10100
C 	C 	0.19874 0.15722 0.42528 -0.10700
C 	C 	0.20534 0.59754 0.44941 0.33700
C 	C 	0.75211 0.64621 0.42607 0.31800
C 	C 	0.76902 0.23461 0.43768 0.32200
O 	O 	0.12682 0.58271 0.47313 -0.43400
C 	C 	0.22750 0.17980 0.46094 0.32300
O 	O 	0.31094 0.58642 0.45746 -0.41600
O 	O 	0.84628 0.65371 0.44351 -0.38100
O 	O 	0.65621 0.62556 0.44189 -0.40400
O 	O 	0.33316 0.19645 0.46902 -0.40400
O 	O 	0.67193 0.23709 0.45330 -0.40500
O 	O 	0.14898 0.19774 0.48438 -0.39300
O 	O 	0.86190 0.26684 0.45474 -0.38600
Co	Co	0.13835 0.41617 0.51607 1.16500
O 	O 	0.49491 0.78905 0.49428 -0.46100
Co	Co	0.37140 0.62417 0.50629 1.18800
Co	Co	0.88372 0.48961 0.48531 1.16200
Co	Co	0.63561 0.64990 0.49460 1.18900
Co	Co	0.65343 0.28605 0.50497 1.18900
O 	O 	0.53055 0.11895 0.51635 -0.46200
Co	Co	0.39058 0.25966 0.51739 1.18900
O 	O 	0.31443 0.43940 0.52020 -0.77700
O 	O 	0.71571 0.47991 0.50267 -0.77900
O 	O 	0.52058 0.47057 0.52463 -0.57800
O 	O 	0.11872 0.62541 0.54958 -0.36900
O 	O 	0.91352 0.70420 0.51639 -0.36600
O 	O 	0.77857 0.17000 0.53259 -0.38400
O 	O 	0.30784 0.13172 0.55653 -0.37800
O 	O 	0.27346 0.78307 0.53632 -0.38000
O 	O 	0.74190 0.82826 0.51631 -0.38300
C 	C 	0.20427 0.71940 0.55936 0.32100
C 	C 	0.83179 0.78006 0.53300 0.32800
O 	O 	0.93206 0.34029 0.52748 -0.43800
O 	O 	0.13676 0.25760 0.55975 -0.36000
C 	C 	0.85813 0.26092 0.54683 0.35000
C 	C 	0.22958 0.20793 0.57461 0.31200
Co	Co	0.38216 0.92485 0.01451 1.17200
O 	O 	0.02604 0.31361 0.01497 -0.47600
C 	C 	0.83604 0.79634 0.57003 -0.09900
C 	C 	0.22556 0.74468 0.59554 -0.10800
C 	C 	0.85946 0.28204 0.58361 -0.12500
C 	C 	0.24274 0.22625 0.61118 -0.11500
C 	C 	0.83451 0.80559 0.60120 0.05700
C 	C 	0.24433 0.75892 0.62605 0.04900
C 	C 	0.85296 0.29907 0.61450 0.06800
C 	C 	0.25735 0.24527 0.64172 0.04600
H 	H 	0.66577 0.68887 0.64010 0.03500
C 	C 	0.82700 0.81235 0.63843 -0.00600
H 	H 	0.98670 0.93643 0.64536 0.05400
C 	C 	0.83999 0.31651 0.65129 -0.02400
H 	H 	0.67071 0.22254 0.65145 0.03300
C 	C 	0.73228 0.74700 0.65506 -0.03000
H 	H 	0.00636 0.41164 0.65944 0.02400
C 	C 	0.91323 0.88539 0.65802 -0.02700
H 	H 	0.42474 0.89612 0.65718 0.03900
C 	C 	0.26393 0.77366 0.66268 -0.00800
C 	C 	0.73918 0.27054 0.66697 -0.02300
H 	H 	0.43957 0.38189 0.67137 0.03500
C 	C 	0.92795 0.37832 0.67145 0.00000
H 	H 	0.10859 0.65301 0.67660 0.03500
C 	C 	0.27638 0.26906 0.67807 -0.01100
C 	C 	0.36323 0.84609 0.67508 -0.03000
Co	Co	0.86637 0.81652 0.99460 1.19400
O 	O 	0.98986 0.64230 0.99482 -0.44800
Co	Co	0.63763 0.03695 0.98589 1.15800
H 	H 	0.11865 0.15925 0.69300 0.03100
C 	C 	0.19535 0.21777 0.70186 -0.03200
C 	C 	0.37667 0.34104 0.68972 -0.03100
C 	C 	0.18529 0.70880 0.68598 -0.03300
C 	C 	0.90401 0.89510 0.69410 -0.03900
C 	C 	0.38222 0.85751 0.71075 -0.04100
C 	C 	0.72714 0.28318 0.70282 -0.05000
C 	C 	0.91575 0.39326 0.70728 -0.05500
C 	C 	0.21365 0.23965 0.73720 -0.04500
C 	C 	0.72333 0.75521 0.69106 -0.04100
C 	C 	0.39600 0.36034 0.72517 -0.04400
H 	H 	0.97016 0.95419 0.70902 0.04500
H 	H 	0.45688 0.92019 0.72015 0.03800
C 	C 	0.20564 0.71468 0.72148 -0.04200
H 	H 	0.64975 0.24371 0.71476 0.03700
H 	H 	0.14965 0.20221 0.75533 0.03100
H 	H 	0.98435 0.44135 0.72269 0.04600
C 	C 	0.81590 0.34258 0.72325 0.01600
C 	C 	0.80878 0.83044 0.71079 0.01000
C 	C 	0.30317 0.79219 0.73415 0.00900
C 	C 	0.31489 0.30801 0.74913 0.00800
H 	H 	0.47326 0.41728 0.73398 0.03600
H 	H 	0.65039 0.70198 0.70365 0.03700
H 	H 	0.14569 0.65896 0.73917 0.03200
H 	H 	0.15663 0.92343 0.78044 0.03500
H 	H 	0.95670 0.19124 0.76888 0.03900
H 	H 	0.95683 0.72161 0.75936 0.04100
C 	C 	0.80691 0.34121 0.76140 0.00500
C 	C 	0.79806 0.84205 0.74889 0.00900
C 	C 	0.31928 0.81222 0.77188 0.00900
C 	C 	0.33612 0.32174 0.78668 0.00800
H 	H 	0.18284 0.45754 0.79761 0.03600
H 	H 	0.49457 0.18997 0.78463 0.03600
H 	H 	0.63721 0.96683 0.74753 0.03800
H 	H 	0.65350 0.48733 0.76289 0.03600
C 	C 	0.23308 0.87966 0.79232 -0.04100
C 	C 	0.88850 0.25798 0.78133 -0.04000
C 	C 	0.88229 0.77691 0.77044 -0.04100
H 	H 	0.48335 0.69735 0.77248 0.03800
C 	C 	0.43201 0.24741 0.80117 -0.04300
C 	C 	0.70170 0.91281 0.76377 -0.04100
C 	C 	0.25582 0.39583 0.80846 -0.04200
C 	C 	0.71589 0.41985 0.77791 -0.04000
C 	C 	0.41671 0.75147 0.78789 -0.04200
C 	C 	0.24292 0.88273 0.82821 -0.03000
C 	C 	0.87988 0.25497 0.81733 -0.03100
C 	C 	0.86878 0.77840 0.80639 -0.02900
C 	C 	0.44446 0.23941 0.83715 -0.03100
C 	C 	0.68862 0.91448 0.79968 -0.03200
H 	H 	0.17485 0.93209 0.84371 0.04100
H 	H 	0.94286 0.18892 0.83244 0.04400
C 	C 	0.26786 0.38597 0.84430 -0.03000
C 	C 	0.70645 0.41392 0.81396 -0.03300
C 	C 	0.42550 0.75194 0.82404 -0.03000
H 	H 	0.93373 0.72632 0.82279 0.04600
H 	H 	0.51644 0.17572 0.84817 0.03900
H 	H 	0.61500 0.97150 0.81089 0.04100
C 	C 	0.77098 0.84450 0.82103 -0.00500
C 	C 	0.78815 0.33074 0.83370 -0.00700
C 	C 	0.33759 0.81449 0.84422 -0.00600
H 	H 	0.20301 0.43706 0.86086 0.04200
C 	C 	0.36089 0.30432 0.85876 -0.00900
H 	H 	0.63622 0.47487 0.82650 0.04100
H 	H 	0.49888 0.69894 0.83629 0.04200
C 	C 	0.75780 0.84801 0.85807 0.05000
C 	C 	0.77580 0.31478 0.87059 0.05000
C 	C 	0.33760 0.79156 0.88112 0.05400
C 	C 	0.35948 0.25988 0.89486 0.05900
C 	C 	0.75051 0.84834 0.88919 -0.09900
C 	C 	0.77139 0.29575 0.90150 -0.10200
C 	C 	0.32600 0.77959 0.91196 -0.10400
C 	C 	0.34808 0.22849 0.92516 -0.11800
C 	C 	0.75246 0.85287 0.92631 0.32100
C 	C 	0.77329 0.26293 0.93800 0.31700
C 	C 	0.29658 0.77314 0.94783 0.32300
C 	C 	0.31678 0.18621 0.95988 0.33500
O 	O 	0.84921 0.84680 0.94205 -0.39900
O 	O 	0.86957 0.23476 0.95318 -0.39900
O 	O 	0.19084 0.78403 0.95613 -0.40800
O 	O 	0.21032 0.17859 0.96724 -0.41800
O 	O 	0.65869 0.86581 0.94395 -0.38500
O 	O 	0.67916 0.25191 0.95529 -0.38300
O 	O 	0.37442 0.76029 0.97162 -0.38900
O 	O 	0.39315 0.14547 0.98301 -0.42900
