data_crystal

_cell_length_a 12.97035
_cell_length_b 9.10979
_cell_length_c 42.85529
_cell_angle_alpha 96.17847
_cell_angle_beta  81.59984
_cell_angle_gamma 113.27796

_symmetry_space_group_name_	'P 1'
_symmetry_space_group_name_H-M	'P 1'

loop_
_symmetry_equiv_pos_as_xyz
  x,y,z

loop_
_atom_site_label
_atom_site_type_symbol
_atom_site_fract_x
_atom_site_fract_y
_atom_site_fract_z
_atom_site_charge
N 	N 	0.08308 0.14726 0.06775 -0.17700
H 	H 	0.07871 0.41270 0.10058 0.07800
C 	C 	0.19855 0.22500 0.06567 0.19100
H 	H 	0.42586 0.36917 0.05376 0.06300
C 	C 	0.04418 0.31763 0.62226 -0.10500
O 	O 	0.08006 0.06731 0.56401 -0.20100
H 	H 	0.15839 0.47918 0.65363 0.04700
C 	C 	0.26243 0.25838 0.03594 -0.05400
C 	C 	0.03056 0.08024 0.04119 0.19500
C 	C 	0.38106 0.33521 0.03301 -0.00600
O 	O 	0.92438 0.97902 0.04380 -0.20200
C 	C 	0.96700 0.16137 0.61654 0.14700
C 	C 	0.09698 0.35879 0.64985 0.05600
C 	C 	0.44291 0.36192 0.00307 -0.01300
H 	H 	0.53426 0.41738 0.00125 0.05300
C 	C 	0.20650 0.21063 0.00868 0.03200
C 	C 	0.08987 0.11898 0.01122 -0.06200
C 	C 	0.94014 0.04726 0.63917 -0.09300
C 	C 	0.38654 0.31813 0.97573 -0.06100
C 	C 	0.07329 0.24397 0.67208 -0.10800
C 	C 	0.26795 0.24731 0.97875 0.03500
C 	C 	0.03441 0.06900 0.98382 -0.00900
H 	H 	0.38640 0.06814 0.87418 0.09600
H 	H 	0.94536 0.99316 0.98524 0.05100
H 	H 	0.88055 0.92626 0.63489 0.06800
C 	C 	0.99293 0.08873 0.66698 0.06400
C 	C 	0.13241 0.28897 0.70058 0.30900
H 	H 	0.39043 0.11178 0.81837 0.02300
C 	C 	0.09358 0.11856 0.95444 -0.01000
C 	C 	0.98785 0.08844 0.56055 0.20000
H 	H 	0.97268 0.99990 0.68422 0.01100
H 	H 	0.10946 0.06479 0.50486 0.05700
H 	H 	0.06524 0.40602 0.60489 0.07500
C 	C 	0.21105 0.20612 0.95170 -0.06000
C 	C 	0.42435 0.18838 0.86608 -0.10300
N 	N 	0.92161 0.11619 0.58666 -0.17700
H 	H 	0.04849 0.08460 0.93376 0.05400
C 	C 	0.44659 0.33838 0.94531 0.19500
O 	O 	0.55774 0.39028 0.94191 -0.19600
C 	C 	0.42894 0.21266 0.83427 0.05600
C 	C 	0.27344 0.24570 0.92218 0.19600
N 	N 	0.38926 0.30034 0.91915 -0.17600
O 	O 	0.21645 0.24211 0.70173 -0.38400
O 	O 	0.12836 0.41439 0.71774 -0.40400
C 	C 	0.45024 0.31947 0.88809 0.14500
O 	O 	0.22076 0.23099 0.89721 -0.20500
Ni	Ni	0.31869 0.29476 0.73763 1.07500
H 	H 	0.26640 0.48702 0.77603 0.15700
O 	O 	0.41223 0.27747 0.77204 -0.45100
C 	C 	0.47610 0.36850 0.82367 -0.11800
O 	O 	0.31906 0.50217 0.75636 -0.70100
C 	C 	0.46827 0.39807 0.79109 0.31100
C 	C 	0.50989 0.47350 0.87734 -0.10700
Ni	Ni	0.27417 0.60251 0.72441 1.09800
C 	C 	0.52306 0.49837 0.84519 0.04800
H 	H 	0.11367 0.85056 0.66320 0.03100
H 	H 	0.53779 0.57469 0.89409 0.08200
O 	O 	0.97496 0.61593 0.94596 -0.17900
H 	H 	0.89254 0.57192 0.00278 0.05000
O 	O 	0.45819 0.41200 0.70792 -0.41700
O 	O 	0.41467 0.74319 0.80418 -0.38000
O 	O 	0.23696 0.73445 0.69564 -0.37600
O 	O 	0.35892 0.52582 0.68584 -0.36700
H 	H 	0.30592 0.54827 0.84950 0.03300
H 	H 	0.13419 0.96349 0.61182 0.07300
C 	C 	0.32014 0.76869 0.80929 0.28400
O 	O 	0.29404 0.84125 0.78840 -0.42200
O 	O 	0.53688 0.53459 0.77957 -0.38600
C 	C 	0.19505 0.93633 0.65396 0.04300
C 	C 	0.26212 0.62516 0.85937 0.04300
C 	C 	0.25166 0.73449 0.84049 -0.10300
H 	H 	0.56270 0.61937 0.83737 0.04000
H 	H 	0.27449 0.56916 0.56896 0.06000
C 	C 	0.28075 0.89137 0.69826 0.29700
C 	C 	0.45411 0.50718 0.68744 0.27400
O 	O 	0.31876 0.40714 0.60509 -0.18400
H 	H 	0.17610 0.90689 0.83890 0.02600
O 	O 	0.29245 0.96653 0.72651 -0.46400
C 	C 	0.20651 0.00016 0.62486 -0.07300
C 	C 	0.18811 0.82550 0.85331 0.03500
Ni	Ni	0.47716 0.67631 0.76045 1.10000
C 	C 	0.22301 0.62261 0.89156 -0.09000
H 	H 	0.24050 0.54842 0.90645 0.07700
C 	C 	0.28897 0.97950 0.67069 -0.12900
C 	C 	0.97307 0.63517 0.01194 -0.00300
C 	C 	0.14845 0.82202 0.88558 -0.09600
H 	H 	0.90104 0.58511 0.05998 0.04900
H 	H 	0.25789 0.64638 0.51736 0.05400
C 	C 	0.07051 0.69541 0.95823 0.17600
O 	O 	0.42582 0.78186 0.73167 -0.71500
C 	C 	0.17225 0.72816 0.90518 0.13400
C 	C 	0.28734 0.49845 0.54789 -0.00500
H 	H 	0.10601 0.89995 0.89571 0.06900
C 	C 	0.97781 0.64361 0.04461 0.00000
H 	H 	0.51018 0.77606 0.65614 0.01900
C 	C 	0.31747 0.31256 0.57949 0.20500
C 	C 	0.27871 0.54324 0.51844 -0.01100
C 	C 	0.31201 0.10684 0.61208 0.14400
C 	C 	0.07187 0.70851 0.99136 -0.06700
Ni	Ni	0.41429 0.97265 0.75429 1.06600
H 	H 	0.47952 0.81100 0.71231 0.15700
N 	N 	0.16874 0.76546 0.93876 -0.17500
C 	C 	0.54988 0.57319 0.66302 -0.10400
C 	C 	0.39484 0.08539 0.65778 0.05800
C 	C 	0.31025 0.36136 0.55007 -0.05100
C 	C 	0.56225 0.70865 0.64768 0.04300
C 	C 	0.40647 0.14734 0.62836 -0.09600
N 	N 	0.32426 0.16737 0.58154 -0.17600
O 	O 	0.27568 0.63270 0.45826 -0.19800
H 	H 	0.46883 0.11365 0.66980 0.00600
H 	H 	0.75623 0.85545 0.80294 0.04300
O 	O 	0.62607 0.86318 0.76491 -0.38700
H 	H 	0.61704 0.39170 0.66483 0.03000
C 	C 	0.29610 0.45431 0.49063 -0.06100
C 	C 	0.62109 0.49111 0.65227 0.04100
C 	C 	0.29245 0.50109 0.46065 0.19100
H 	H 	0.16786 0.27382 0.38934 0.07900
O 	O 	0.99729 0.66639 0.10952 -0.19900
C 	C 	0.32289 0.26857 0.52255 0.04000
C 	C 	0.08082 0.72961 0.05728 -0.06700
C 	C 	0.62656 0.99264 0.78196 0.25800
H 	H 	0.48913 0.22192 0.61767 0.07400
C 	C 	0.17411 0.79686 0.00398 0.03000
O 	O 	0.54033 0.03889 0.78354 -0.37100
H 	H 	0.44827 0.68921 0.94116 0.05300
C 	C 	0.33555 0.07452 0.55488 0.21000
C 	C 	0.31801 0.31679 0.49276 0.02500
C 	C 	0.26656 0.86318 0.95104 0.18500
C 	C 	0.74750 0.95397 0.81808 0.01000
H 	H 	0.79423 0.88274 0.85835 0.06800
O 	O 	0.54496 0.86241 0.89545 -0.19300
C 	C 	0.63486 0.74946 0.61984 -0.09800
H 	H 	0.63587 0.84505 0.60678 0.07800
C 	C 	0.33584 0.12421 0.52485 -0.06700
C 	C 	0.08724 0.74335 0.09017 0.17800
C 	C 	0.70102 0.05310 0.80755 -0.05000
C 	C 	0.24247 0.37563 0.38149 -0.09300
C 	C 	0.17852 0.80790 0.03693 0.03100
C 	C 	0.76966 0.96974 0.84951 -0.10600
O 	O 	0.34354 0.93658 0.55745 -0.21600
C 	C 	0.27133 0.87857 0.98382 -0.05600
H 	H 	0.40813 0.63716 0.99745 0.05200
N 	N 	0.31024 0.41311 0.43382 -0.17600
O 	O 	0.35704 0.94113 0.93196 -0.19700
C 	C 	0.68937 0.52688 0.62346 -0.10300
H 	H 	0.22101 0.31557 0.33225 0.03100
C 	C 	0.50795 0.76434 0.95717 -0.01100
C 	C 	0.69132 0.65066 0.60621 0.13600
C 	C 	0.31685 0.47060 0.40322 0.14100
O 	O 	0.54830 0.60308 0.56174 -0.19400
C 	C 	0.33134 0.22439 0.46525 -0.05700
C 	C 	0.27208 0.40031 0.34913 0.04100
C 	C 	0.62270 0.93792 0.91464 0.17900
C 	C 	0.48663 0.73143 0.98912 -0.01100
C 	C 	0.33024 0.27705 0.43568 0.18800
H 	H 	0.73427 0.45160 0.61349 0.08100
C 	C 	0.34473 0.02906 0.49727 0.00500
C 	C 	0.74534 0.08412 0.87050 0.15200
C 	C 	0.69983 0.18766 0.82685 0.02700
C 	C 	0.60292 0.89783 0.94633 -0.04900
C 	C 	0.34385 0.07960 0.46769 -0.01300
H 	H 	0.67375 0.27356 0.81821 0.04100
N 	N 	0.18663 0.83846 0.10208 -0.17200
H 	H 	0.35301 0.91638 0.49862 0.05300
C 	C 	0.71895 0.20076 0.85851 -0.08800
C 	C 	0.40932 0.60744 0.39305 -0.09200
C 	C 	0.28011 0.90088 0.04949 -0.05100
N 	N 	0.72133 0.05854 0.90379 -0.16700
O 	O 	0.44782 0.68327 0.05396 -0.19600
C 	C 	0.37168 0.97511 0.99668 -0.02700
N 	N 	0.73048 0.65564 0.57295 -0.17800
C 	C 	0.65502 0.63179 0.55165 0.19100
H 	H 	0.53006 0.61055 0.50519 0.05500
C 	C 	0.37492 0.52210 0.33864 -0.09700
O 	O 	0.35230 0.19844 0.40961 -0.19000
H 	H 	0.46532 0.68483 0.40972 0.08000
H 	H 	0.25687 0.69135 0.14089 0.06900
C 	C 	0.56144 0.82893 0.01058 -0.06200
C 	C 	0.18959 0.86838 0.13570 0.12100
H 	H 	0.71960 0.68374 0.06659 0.07300
H 	H 	0.35148 0.00483 0.44676 0.07300
C 	C 	0.43593 0.63552 0.36091 0.04500
C 	C 	0.28269 0.91450 0.08234 0.18500
H 	H 	0.12582 0.05536 0.13890 0.07300
H 	H 	0.44669 0.04226 0.98155 0.07000
H 	H 	0.70388 0.29314 0.87430 0.08000
C 	C 	0.37643 0.98467 0.02918 -0.02100
C 	C 	0.24351 0.79671 0.15152 -0.09400
O 	O 	0.37907 0.45138 0.28252 -0.40900
C 	C 	0.54180 0.79781 0.04283 0.19200
C 	C 	0.16850 0.00033 0.15055 -0.08400
H 	H 	0.70122 0.53034 0.11245 0.04800
C 	C 	0.67803 0.99524 0.96763 0.01200
C 	C 	0.61518 0.61893 0.49725 -0.00900
C 	C 	0.69037 0.63523 0.51916 -0.06300
C 	C 	0.43510 0.50064 0.30771 0.28500
C 	C 	0.84126 0.67974 0.56288 0.19400
C 	C 	0.67515 0.70664 0.08880 -0.10000
C 	C 	0.79651 0.15377 0.92421 0.18900
C 	C 	0.65610 0.96255 0.99990 0.02400
O 	O 	0.91314 0.70761 0.58371 -0.20000
C 	C 	0.29443 0.87421 0.17862 0.02800
H 	H 	0.51140 0.73510 0.35308 0.03400
C 	C 	0.66435 0.61949 0.11479 0.04200
Ni	Ni	0.45052 0.46723 0.23485 1.06000
C 	C 	0.21845 0.07675 0.17775 0.03800
H 	H 	0.34497 0.82638 0.18902 0.00900
C 	C 	0.29138 0.02319 0.18986 -0.09100
H 	H 	0.45482 0.06003 0.03852 0.06300
C 	C 	0.77404 0.12675 0.95678 -0.03400
O 	O 	0.48452 0.48701 0.18655 -0.40200
O 	O 	0.36825 0.22476 0.23045 -0.41900
H 	H 	0.21175 0.18856 0.18697 0.02400
N 	N 	0.62012 0.88718 0.06277 -0.18100
H 	H 	0.59072 0.60269 0.44845 0.05400
O 	O 	0.37704 0.00544 0.09434 -0.17400
C 	C 	0.65015 0.61599 0.46493 -0.01200
C 	C 	0.62462 0.81838 0.09094 0.14200
O 	O 	0.89029 0.26964 0.91331 -0.18200
C 	C 	0.80232 0.65500 0.50844 0.03800
C 	C 	0.87858 0.67683 0.53034 -0.06700
O 	O 	0.53423 0.49320 0.30746 -0.38000
C 	C 	0.38737 0.14099 0.20507 0.29500
C 	C 	0.60353 0.64429 0.14342 -0.09700
C 	C 	0.72697 0.06589 0.02163 -0.04700
C 	C 	0.58678 0.54559 0.17034 0.27800
C 	C 	0.70468 0.02846 0.05365 0.20700
C 	C 	0.56773 0.84822 0.11981 -0.09700
C 	C 	0.84578 0.22882 0.97855 -0.02000
C 	C 	0.76154 0.63194 0.45402 -0.05900
C 	C 	0.55756 0.76183 0.14602 0.03800
C 	C 	0.83818 0.65423 0.47580 0.02500
O 	O 	0.59445 0.46070 0.24128 -0.70900
C 	C 	0.99126 0.69891 0.51940 0.01200
C 	C 	0.82126 0.20031 0.01082 -0.00700
H 	H 	0.05171 0.71803 0.53592 0.04700
O 	O 	0.48765 0.18709 0.18871 -0.36600
H 	H 	0.65362 0.56996 0.24274 0.15000
H 	H 	0.52988 0.93598 0.12176 0.08900
H 	H 	0.92182 0.32800 0.97053 0.06400
O 	O 	0.72296 0.58821 0.40112 -0.20500
Ni	Ni	0.57948 0.33121 0.27849 1.09800
H 	H 	0.51431 0.78630 0.16827 0.00700
O 	O 	0.76702 0.12695 0.07468 -0.18300
C 	C 	0.79702 0.62392 0.42162 0.18900
O 	O 	0.66105 0.48087 0.17167 -0.37700
C 	C 	0.95065 0.67662 0.46496 -0.04400
C 	C 	0.02729 0.70071 0.48698 -0.03800
H 	H 	0.61491 0.28874 0.37251 0.05600
H 	H 	0.87817 0.27927 0.02712 0.05400
O 	O 	0.57162 0.20675 0.31647 -0.38200
Ni	Ni	0.63830 0.32912 0.20566 1.10000
H 	H 	0.53676 0.09003 0.24066 0.14600
H 	H 	0.93912 0.84309 0.36490 0.07400
O 	O 	0.60678 0.18668 0.24242 -0.70500
N 	N 	0.90698 0.64469 0.41123 -0.17700
O 	O 	0.74440 0.47609 0.28303 -0.39800
C 	C 	0.98450 0.67490 0.43219 0.19200
H 	H 	0.11515 0.72452 0.47914 0.06700
C 	C 	0.93252 0.72334 0.35681 -0.10100
H 	H 	0.88456 0.73796 0.31164 0.02600
C 	C 	0.64780 0.19829 0.37454 0.04100
H 	H 	0.67059 0.26358 0.42348 0.07800
C 	C 	0.63223 0.11982 0.31716 0.29400
C 	C 	0.93775 0.62023 0.37808 0.14200
C 	C 	0.90138 0.66363 0.32668 0.04800
C 	C 	0.67904 0.18394 0.40352 -0.09300
C 	C 	0.66126 0.09875 0.34812 -0.09400
O 	O 	0.64910 0.03016 0.29200 -0.42400
O 	O 	0.09046 0.70011 0.42161 -0.19400
C 	C 	0.81704 0.42310 0.29080 0.30600
O 	O 	0.70707 0.19502 0.17505 -0.37400
C 	C 	0.88393 0.50406 0.31709 -0.10600
C 	C 	0.94041 0.47167 0.36653 -0.10100
Ni	Ni	0.72891 0.12226 0.24968 1.06300
O 	O 	0.56371 0.98177 0.45975 -0.21000
H 	H 	0.94972 0.39381 0.38237 0.07900
C 	C 	0.91475 0.41430 0.33591 0.04300
O 	O 	0.84252 0.31396 0.27271 -0.39800
C 	C 	0.71991 0.06586 0.40689 0.13900
H 	H 	0.54469 0.03283 0.51892 0.05900
C 	C 	0.70716 0.98538 0.35118 0.02900
C 	C 	0.79859 0.17806 0.18035 0.28600
O 	O 	0.83289 0.21320 0.20860 -0.41400
H 	H 	0.90823 0.29427 0.32800 0.02800
H 	H 	0.81685 0.91198 0.15042 0.01200
C 	C 	0.67119 0.02498 0.46323 0.19900
C 	C 	0.73192 0.96481 0.38071 -0.10500
H 	H 	0.72030 0.90970 0.33101 0.02800
N 	N 	0.75011 0.04961 0.43709 -0.17900
C 	C 	0.63006 0.04649 0.52093 -0.00700
C 	C 	0.70474 0.04393 0.49368 -0.06300
C 	C 	0.87373 0.02118 0.13953 0.05000
H 	H 	0.60883 0.07661 0.57159 0.05400
C 	C 	0.87895 0.16985 0.15336 -0.10300
C 	C 	0.66683 0.07182 0.55094 -0.00900
C 	C 	0.85920 0.06922 0.43986 0.19700
H 	H 	0.76151 0.87183 0.38320 0.08100
O 	O 	0.93447 0.09478 0.41469 -0.20600
C 	C 	0.81551 0.06354 0.49680 0.03900
H 	H 	0.93361 0.89800 0.10023 0.07400
C 	C 	0.94079 0.01324 0.11133 -0.07300
C 	C 	0.89202 0.06898 0.46973 -0.06700
C 	C 	0.77750 0.08851 0.55412 -0.05900
C 	C 	0.95441 0.31093 0.13954 0.06400
H 	H 	0.95894 0.42632 0.15024 0.03400
C 	C 	0.84998 0.07766 0.52704 0.02900
O 	O 	0.75762 0.15176 0.60901 -0.20900
C 	C 	0.81775 0.11734 0.58393 0.19300
C 	C 	0.99987 0.07432 0.47295 0.01000
C 	C 	0.01587 0.15446 0.09726 0.12700
H 	H 	0.05868 0.07272 0.45230 0.04700
C 	C 	0.02207 0.30332 0.11149 -0.10600
C 	C 	0.95667 0.08023 0.53016 -0.05000
C 	C 	0.03028 0.07408 0.50293 -0.02900
O 	O 	0.24925 0.27113 0.09159 -0.19100
