data_crystal

_cell_length_a 19.92147
_cell_length_b 21.59721
_cell_length_c 22.76037
_cell_angle_alpha 61.10607
_cell_angle_beta  118.58683
_cell_angle_gamma 133.21953

_symmetry_space_group_name_	'P 1'
_symmetry_space_group_name_H-M	'P 1'

loop_
_symmetry_equiv_pos_as_xyz
  x,y,z

loop_
_atom_site_label
_atom_site_type_symbol
_atom_site_fract_x
_atom_site_fract_y
_atom_site_fract_z
_atom_site_charge
C 	C 	0.01736 0.95306 0.94468 0.25100
F 	F 	0.00406 0.73029 0.25118 -0.39700
O 	O 	0.04170 0.98567 0.33518 -0.27600
O 	O 	0.02492 0.94803 0.84743 -0.26700
F 	F 	0.00808 0.46524 0.72926 -0.41800
C 	C 	0.02817 0.67444 0.27377 0.79700
F 	F 	0.02911 0.63618 0.34321 -0.34200
O 	O 	0.03192 0.01847 0.13765 -0.56100
C 	C 	0.01671 0.00429 0.36633 0.20900
O 	O 	0.04050 0.79779 0.11786 -0.34000
C 	C 	0.03345 0.98159 0.44329 0.26500
O 	O 	0.02954 0.99932 0.64955 -0.52500
F 	F 	0.04466 0.45054 0.05884 -0.42000
Co	Co	0.06263 0.05346 0.23265 1.19400
C 	C 	0.06186 0.20297 0.22233 0.28600
O 	O 	0.06499 0.91950 0.98415 -0.31000
Co	Co	0.06715 0.02406 0.75187 1.18700
O 	O 	0.06291 0.13770 0.80033 -0.38000
O 	O 	0.05779 0.92835 0.61083 -0.73700
O 	O 	0.05156 0.77481 0.65704 -0.33800
C 	C 	0.04928 0.55249 0.69482 0.78600
O 	O 	0.08952 0.96282 0.11075 -0.73700
C 	C 	0.05706 0.63659 0.74842 0.09200
H 	H 	0.07814 0.34186 0.12086 0.08900
F 	F 	0.08412 0.52686 0.12401 -0.43900
Co	Co	0.08632 0.87837 0.57246 1.18600
F 	F 	0.07480 0.18158 0.38514 -0.43000
C 	C 	0.09696 0.78270 0.72067 0.31300
O 	O 	0.10076 0.83035 0.74528 -0.26200
O 	O 	0.10543 0.97742 0.48335 -0.31300
H 	H 	0.09118 0.62316 0.23198 0.10000
F 	F 	0.10865 0.29084 0.61302 -0.43500
C 	C 	0.10020 0.60731 0.74557 -0.10900
C 	C 	0.10423 0.35312 0.17136 0.07600
H 	H 	0.98313 0.60886 0.72318 0.12800
F 	F 	0.97852 0.56013 0.64475 -0.43500
Co	Co	0.15258 0.00763 0.17969 1.19400
C 	C 	0.19917 0.88225 0.23702 0.30700
Co	Co	0.14590 0.92691 0.08514 1.17500
O 	O 	0.96886 0.15770 0.19936 -0.33800
O 	O 	0.17935 0.06421 0.24646 -0.36800
O 	O 	0.11091 0.18108 0.22207 -0.28800
O 	O 	0.23436 0.92794 0.18257 -0.33900
O 	O 	0.15514 0.90063 0.24729 -0.29700
Co	Co	0.11883 0.95087 0.68986 1.20900
C 	C 	0.13488 0.18937 0.77240 0.30600
O 	O 	0.15625 0.99720 0.76847 -0.35100
O 	O 	0.15753 0.15617 0.75484 -0.28200
C 	C 	0.19942 0.41015 0.71425 0.02000
C 	C 	0.19994 0.28211 0.77466 0.03100
C 	C 	0.19972 0.34564 0.71339 -0.07100
C 	C 	0.20019 0.34528 0.64725 0.78200
H 	H 	0.18919 0.45355 0.66611 0.13500
F 	F 	0.24129 0.42878 0.60435 -0.37300
F 	F 	0.25175 0.31643 0.66133 -0.38200
C 	C 	0.11363 0.71468 0.76858 0.04300
C 	C 	0.16481 0.37911 0.30178 0.02200
C 	C 	0.11259 0.29120 0.23032 0.01500
C 	C 	0.14616 0.30589 0.29656 -0.06100
C 	C 	0.15756 0.24221 0.36233 0.77600
H 	H 	0.18945 0.39001 0.35217 0.13200
C 	C 	0.20005 0.80465 0.28085 0.02700
C 	C 	0.12463 0.72302 0.26364 -0.08800
F 	F 	0.96001 0.60925 0.23822 -0.39300
C 	C 	0.77653 0.34210 0.01684 0.08900
C 	C 	0.83177 0.42652 0.02739 -0.02300
C 	C 	0.78662 0.46225 0.01629 0.03900
C 	C 	0.68806 0.41294 0.99604 0.06300
C 	C 	0.63473 0.32419 0.00091 0.03800
C 	C 	0.67729 0.29152 0.00317 -0.02700
H 	H 	0.90759 0.46157 0.04712 0.15700
H 	H 	0.65328 0.43957 0.98853 0.12700
H 	H 	0.63460 0.22333 0.00318 0.11500
C 	C 	0.74324 0.32948 0.51941 0.09300
C 	C 	0.64429 0.27834 0.49563 -0.03500
C 	C 	0.59146 0.29018 0.50734 0.09500
C 	C 	0.63484 0.37028 0.51738 -0.03200
C 	C 	0.73335 0.43021 0.53099 0.08000
C 	C 	0.78875 0.40709 0.53733 -0.01700
H 	H 	0.60832 0.21931 0.48111 0.13800
H 	H 	0.59256 0.38308 0.52019 0.12800
H 	H 	0.86460 0.44728 0.55709 0.16600
C 	C 	0.26549 0.65755 0.27144 0.07700
C 	C 	0.35463 0.71053 0.25638 -0.01300
C 	C 	0.38249 0.67307 0.24516 0.07500
C 	C 	0.31762 0.58708 0.23879 -0.01400
C 	C 	0.22730 0.53484 0.24920 0.07500
C 	C 	0.20200 0.56836 0.26868 -0.02000
H 	H 	0.40173 0.78002 0.25337 0.13100
H 	H 	0.33846 0.55980 0.22722 0.12000
H 	H 	0.13398 0.52585 0.28120 0.10800
C 	C 	0.24885 0.61675 0.78006 0.08300
C 	C 	0.33631 0.68686 0.76152 -0.02400
C 	C 	0.38559 0.67090 0.74974 0.08500
C 	C 	0.34818 0.58579 0.75567 -0.02600
C 	C 	0.26299 0.51505 0.77553 0.08600
C 	C 	0.21415 0.52977 0.79029 -0.00700
H 	H 	0.36534 0.75364 0.75550 0.12800
H 	H 	0.38675 0.57436 0.74585 0.12500
H 	H 	0.15014 0.47482 0.80874 0.15100
Co	Co	0.88649 0.97515 0.12482 1.20200
Co	Co	0.97794 0.93292 0.07085 1.18800
Co	Co	0.88131 0.02446 0.23656 1.20500
O 	O 	0.94883 0.01639 0.19552 -0.74500
O 	O 	0.86488 0.93043 0.05174 -0.38000
C 	C 	0.80293 0.06484 0.09080 0.30600
C 	C 	0.30358 0.11039 0.09651 0.28600
C 	C 	0.95127 0.76748 0.08883 0.28000
O 	O 	0.24026 0.05943 0.05325 -0.37300
O 	O 	0.28047 0.10596 0.14557 -0.28300
O 	O 	0.77777 0.00741 0.14723 -0.30900
O 	O 	0.85248 0.06559 0.06703 -0.32700
O 	O 	0.97805 0.04549 0.32980 -0.27500
O 	O 	0.91438 0.79835 0.09284 -0.27500
C 	C 	0.74743 0.84424 0.22148 0.30400
O 	O 	0.80584 0.89062 0.26831 -0.34000
O 	O 	0.77840 0.85530 0.17413 -0.27700
O 	O 	0.99873 0.98258 0.97085 -0.29500
Co	Co	0.90050 0.98795 0.63358 1.20300
Co	Co	0.95922 0.92433 0.56880 1.19600
Co	Co	0.92678 0.05750 0.74879 1.18600
O 	O 	0.97054 0.02454 0.70684 -0.72800
O 	O 	0.86263 0.94017 0.55597 -0.37900
C 	C 	0.88793 0.13789 0.60085 0.30600
C 	C 	0.99013 0.96039 0.87562 0.19800
C 	C 	0.27268 0.02654 0.62855 0.29900
C 	C 	0.87909 0.75523 0.54927 0.30600
O 	O 	0.22688 0.94708 0.62458 -0.31900
O 	O 	0.24766 0.04173 0.66158 -0.29700
O 	O 	0.94588 0.15566 0.66035 -0.33200
O 	O 	0.87562 0.08516 0.57580 -0.28300
O 	O 	0.91731 0.96327 0.83925 -0.27100
O 	O 	0.94871 0.80585 0.51913 -0.37300
O 	O 	0.87115 0.78832 0.57982 -0.29900
C 	C 	0.75132 0.89225 0.70607 0.32500
O 	O 	0.78647 0.97122 0.70422 -0.32200
O 	O 	0.79019 0.88148 0.68184 -0.31800
O 	O 	0.98791 0.98540 0.46898 -0.29000
C 	C 	0.22436 0.42643 0.77709 0.09100
C 	C 	0.24166 0.37162 0.83981 -0.12200
C 	C 	0.22811 0.29933 0.83781 0.09500
H 	H 	0.22862 0.25078 0.88499 0.09300
C 	C 	0.27287 0.38907 0.90880 0.79300
F 	F 	0.20467 0.38447 0.91644 -0.41400
F 	F 	0.35760 0.47139 0.91221 -0.39100
F 	F 	0.28611 0.32856 0.96363 -0.41300
C 	C 	0.55711 0.74970 0.79434 0.03500
C 	C 	0.48126 0.74172 0.73796 0.08800
C 	C 	0.49483 0.77879 0.67027 -0.09500
C 	C 	0.57977 0.81197 0.66060 0.09800
C 	C 	0.65570 0.82059 0.71708 0.02300
C 	C 	0.64089 0.78097 0.78455 -0.06300
C 	C 	0.71110 0.76751 0.84633 0.77600
H 	H 	0.54663 0.72168 0.84624 0.13200
H 	H 	0.58926 0.83660 0.60890 0.14300
C 	C 	0.41683 0.77825 0.60826 0.79400
F 	F 	0.75696 0.82415 0.88632 -0.41200
F 	F 	0.77732 0.78090 0.82730 -0.41600
F 	F 	0.66344 0.68247 0.88585 -0.37400
F 	F 	0.37131 0.79635 0.62117 -0.39300
F 	F 	0.35184 0.69687 0.59367 -0.37400
F 	F 	0.45306 0.84115 0.55091 -0.34200
C 	C 	0.24061 0.69675 0.82491 0.03500
C 	C 	0.19342 0.63595 0.78648 0.09500
C 	C 	0.20231 0.73832 0.81484 -0.05300
C 	C 	0.25516 0.80611 0.85385 0.78100
H 	H 	0.30978 0.71598 0.85873 0.13500
F 	F 	0.32741 0.80471 0.90799 -0.35200
F 	F 	0.19364 0.78952 0.88086 -0.36200
F 	F 	0.29386 0.88863 0.80975 -0.37700
F 	F 	0.11045 0.57971 0.66075 -0.40500
C 	C 	0.16197 0.44324 0.24287 0.08800
C 	C 	0.12415 0.42670 0.17708 -0.13200
C 	C 	0.11242 0.49122 0.11237 0.79100
F 	F 	0.23063 0.28602 0.41327 -0.38800
F 	F 	0.17891 0.19962 0.35253 -0.40900
F 	F 	0.19754 0.55778 0.09258 -0.40700
C 	C 	0.62541 0.73284 0.28886 0.08800
C 	C 	0.64668 0.77752 0.22387 0.02300
C 	C 	0.57598 0.77988 0.16541 -0.05800
C 	C 	0.49825 0.76102 0.17477 0.03100
C 	C 	0.48018 0.72265 0.24062 0.09500
C 	C 	0.54492 0.70872 0.29859 -0.11500
C 	C 	0.52818 0.66817 0.37070 0.79400
H 	H 	0.67616 0.72408 0.33280 0.10200
H 	H 	0.44718 0.76901 0.13029 0.13100
C 	C 	0.57871 0.79467 0.09409 0.78000
F 	F 	0.60506 0.67105 0.42083 -0.40800
F 	F 	0.44998 0.58152 0.37649 -0.39400
F 	F 	0.51306 0.71355 0.38360 -0.36600
F 	F 	0.60819 0.75050 0.09745 -0.38700
F 	F 	0.64005 0.88296 0.06691 -0.42100
F 	F 	0.48996 0.76391 0.04972 -0.38400
C 	C 	0.14609 0.67643 0.25752 0.03300
C 	C 	0.23740 0.69642 0.28748 0.08700
C 	C 	0.30352 0.75955 0.32774 -0.10400
C 	C 	0.28803 0.81899 0.31813 0.08900
H 	H 	0.34501 0.87719 0.33793 0.13500
C 	C 	0.38370 0.75842 0.38540 0.79100
F 	F 	0.46719 0.82184 0.36332 -0.37800
F 	F 	0.36570 0.67724 0.40748 -0.36300
F 	F 	0.39466 0.77632 0.44135 -0.34600
C 	C 	0.88898 0.26926 0.52522 0.07300
C 	C 	0.83838 0.18028 0.56092 0.03200
C 	C 	0.75817 0.14474 0.57976 -0.09400
C 	C 	0.74894 0.20139 0.58339 0.03500
C 	C 	0.79167 0.28790 0.54266 0.07400
C 	C 	0.86072 0.32157 0.51050 -0.09400
C 	C 	0.90813 0.41351 0.46435 0.78900
H 	H 	0.95155 0.29831 0.51089 0.13100
H 	H 	0.69599 0.17431 0.60813 0.08900
C 	C 	0.67518 0.04928 0.58505 0.78400
F 	F 	0.95888 0.42664 0.42895 -0.37300
F 	F 	0.97001 0.47397 0.50402 -0.37300
F 	F 	0.84138 0.42795 0.41592 -0.35300
F 	F 	0.66240 0.00934 0.65163 -0.42800
F 	F 	0.68777 0.00581 0.56690 -0.42300
F 	F 	0.59404 0.04280 0.54081 -0.38300
C 	C 	0.78176 0.64905 0.47981 0.09200
C 	C 	0.80785 0.66319 0.54370 0.02400
C 	C 	0.79868 0.59458 0.60327 -0.06700
C 	C 	0.78790 0.52412 0.60020 0.03100
C 	C 	0.77639 0.51718 0.53700 0.10600
C 	C 	0.77583 0.58208 0.47629 -0.11500
C 	C 	0.76442 0.57777 0.40715 0.79200
H 	H 	0.77988 0.69795 0.43336 0.09600
H 	H 	0.78351 0.47234 0.64610 0.12900
C 	C 	0.79135 0.59233 0.66764 0.78200
F 	F 	0.78953 0.65673 0.35865 -0.40200
F 	F 	0.67110 0.51347 0.38293 -0.37700
F 	F 	0.82179 0.55869 0.41395 -0.35800
F 	F 	0.72827 0.61012 0.64987 -0.36900
F 	F 	0.87869 0.65445 0.70014 -0.41400
F 	F 	0.75934 0.51108 0.71381 -0.36500
C 	C 	0.34368 0.14012 0.52948 0.07400
C 	C 	0.35636 0.09794 0.59968 0.00900
C 	C 	0.44498 0.11275 0.63749 -0.05600
C 	C 	0.51904 0.16940 0.60381 0.02600
C 	C 	0.50662 0.21284 0.53403 0.07400
C 	C 	0.41625 0.19253 0.49515 -0.10300
C 	C 	0.39695 0.22781 0.41755 0.79200
H 	H 	0.27591 0.12932 0.50100 0.10600
H 	H 	0.58812 0.18326 0.63245 0.10100
C 	C 	0.45951 0.06574 0.71295 0.77400
F 	F 	0.30394 0.16938 0.38745 -0.39600
F 	F 	0.45391 0.24002 0.38890 -0.38700
F 	F 	0.41333 0.30682 0.40225 -0.37300
F 	F 	0.55411 0.09982 0.74348 -0.38600
F 	F 	0.40995 0.97798 0.71823 -0.37600
F 	F 	0.42755 0.07403 0.74909 -0.36800
C 	C 	0.81496 0.24023 0.10584 0.05300
C 	C 	0.81981 0.29625 0.04014 0.02300
C 	C 	0.83269 0.28336 0.99162 0.02100
C 	C 	0.82913 0.20840 0.00875 -0.04800
C 	C 	0.80394 0.14332 0.07022 0.05100
C 	C 	0.78431 0.15611 0.11469 -0.11600
C 	C 	0.71570 0.07968 0.16123 0.78700
H 	H 	0.81375 0.25406 0.14508 0.09300
H 	H 	0.84158 0.19918 0.97316 0.16700
C 	C 	0.84371 0.34522 0.92072 0.76400
F 	F 	0.67479 0.10332 0.17331 -0.41200
F 	F 	0.76330 0.05401 0.22420 -0.47800
F 	F 	0.64256 0.00975 0.13071 -0.41000
F 	F 	0.89967 0.43077 0.92500 -0.34300
F 	F 	0.75551 0.32323 0.87894 -0.36100
F 	F 	0.88599 0.34063 0.89071 -0.37800
C 	C 	0.81259 0.53506 0.09010 0.05300
C 	C 	0.83875 0.54309 0.03775 0.01800
C 	C 	0.89014 0.62699 0.99418 0.02400
C 	C 	0.91791 0.70069 0.00647 -0.06400
C 	C 	0.89082 0.69164 0.05862 0.06500
C 	C 	0.82742 0.60691 0.09415 -0.06700
C 	C 	0.76517 0.59184 0.12699 0.78900
H 	H 	0.77175 0.47075 0.12267 0.10800
H 	H 	0.96359 0.76547 0.97722 0.15300
C 	C 	0.91715 0.63854 0.93558 0.76000
F 	F 	0.69564 0.50352 0.14779 -0.37300
F 	F 	0.72104 0.63184 0.07962 -0.37700
F 	F 	0.81874 0.62680 0.18389 -0.34000
F 	F 	0.83702 0.58671 0.89147 -0.35500
F 	F 	0.97742 0.61497 0.96214 -0.35400
F 	F 	0.96281 0.72448 0.89716 -0.38900
C 	C 	0.39786 0.23214 0.01112 -0.04400
C 	C 	0.39686 0.18471 0.08023 0.06200
C 	C 	0.47816 0.18767 0.12429 -0.09300
C 	C 	0.55069 0.22430 0.09551 0.05000
C 	C 	0.54646 0.26385 0.02463 0.01900
C 	C 	0.46634 0.26299 0.98136 -0.00400
C 	C 	0.45379 0.29601 0.90362 0.76400
H 	H 	0.33836 0.23472 0.97856 0.15500
H 	H 	0.61258 0.22545 0.12856 0.10800
C 	C 	0.48670 0.14981 0.20147 0.78900
F 	F 	0.35875 0.25013 0.87111 -0.41900
F 	F 	0.49732 0.28498 0.88071 -0.37200
F 	F 	0.49198 0.38386 0.88471 -0.38300
F 	F 	0.43072 0.05950 0.21568 -0.42200
F 	F 	0.45823 0.17452 0.22578 -0.38500
F 	F 	0.57926 0.17938 0.23666 -0.38300
