data_crystal

_cell_length_a 20.01646
_cell_length_b 21.31933
_cell_length_c 22.63402
_cell_angle_alpha 61.10607
_cell_angle_beta  118.58683
_cell_angle_gamma 133.21953

_symmetry_space_group_name_	'P 1'
_symmetry_space_group_name_H-M	'P 1'

loop_
_symmetry_equiv_pos_as_xyz
  x,y,z

loop_
_atom_site_label
_atom_site_type_symbol
_atom_site_fract_x
_atom_site_fract_y
_atom_site_fract_z
_atom_site_charge
O 	O 	0.00989 0.00895 0.12323 -0.54800
C 	C 	0.00834 0.00801 0.35055 0.27400
H 	H 	0.03244 0.71857 0.57199 0.05000
F 	F 	0.00722 0.60189 0.34864 -0.33700
Co	Co	0.04909 0.05179 0.21726 1.19100
C 	C 	0.05596 0.20832 0.20644 0.25200
O 	O 	0.02713 0.98379 0.31920 -0.36800
O 	O 	0.06224 0.95235 0.09135 -0.77900
Co	Co	0.06322 0.04031 0.73231 1.19800
O 	O 	0.03477 0.14327 0.77441 -0.37000
O 	O 	0.03758 0.97382 0.83402 -0.33600
O 	O 	0.07738 0.95565 0.59570 -0.77500
H 	H 	0.04151 0.65859 0.74909 0.10300
C 	C 	0.04581 0.30165 0.23895 -0.09900
C 	C 	0.01053 0.63927 0.27950 0.74700
C 	C 	0.01394 0.97579 0.92525 0.14800
C 	C 	0.02833 0.98699 0.42773 0.13700
O 	O 	0.02741 0.00957 0.63271 -0.53600
F 	F 	0.05868 0.51249 0.73922 -0.39700
F 	F 	0.07929 0.64827 0.56222 -0.40100
F 	F 	0.06948 0.62288 0.10133 -0.44900
F 	F 	0.01925 0.32161 0.60729 -0.42800
H 	H 	0.01738 0.70602 0.08169 0.04000
Co	Co	0.10772 0.91221 0.05837 1.15600
O 	O 	0.10558 0.18267 0.21312 -0.30700
O 	O 	0.10142 0.82241 0.15245 -0.36600
O 	O 	0.09802 0.99551 0.96279 -0.29800
Co	Co	0.12189 0.91855 0.55825 1.16700
C 	C 	0.10664 0.20095 0.74553 0.31000
O 	O 	0.11958 0.82494 0.64944 -0.37200
O 	O 	0.11162 0.00423 0.46445 -0.28800
C 	C 	0.11572 0.68607 0.76897 0.07700
C 	C 	0.07145 0.53383 0.79432 0.76700
C 	C 	0.09460 0.38362 0.25204 0.05600
C 	C 	0.09903 0.27766 0.24116 0.03300
H 	H 	0.05755 0.41095 0.23782 0.13000
C 	C 	0.11015 0.69083 0.27431 -0.06200
H 	H 	0.09227 0.57577 0.28014 0.12500
Co	Co	0.12701 0.99404 0.16258 1.18500
C 	C 	0.14675 0.84196 0.21304 0.30500
O 	O 	0.14085 0.89006 0.22998 -0.32000
Co	Co	0.13837 0.98678 0.67136 1.19100
O 	O 	0.13508 0.17399 0.72624 -0.28000
O 	O 	0.13704 0.87385 0.73040 -0.31500
F 	F 	0.09903 0.48756 0.85636 -0.36500
C 	C 	0.14494 0.63304 0.78800 -0.08500
C 	C 	0.15590 0.83721 0.71223 0.31300
O 	O 	0.15937 0.05359 0.23092 -0.35900
O 	O 	0.16699 0.03254 0.74778 -0.34200
C 	C 	0.16527 0.41671 0.72241 0.04500
C 	C 	0.15058 0.35454 0.70211 -0.06800
C 	C 	0.11271 0.35443 0.62609 0.78300
H 	H 	0.14841 0.46248 0.68350 0.15700
C 	C 	0.14251 0.64413 0.28397 0.04600
C 	C 	0.16905 0.29243 0.75307 0.02800
F 	F 	0.16234 0.44038 0.58668 -0.35500
C 	C 	0.18195 0.77724 0.76682 0.02200
C 	C 	0.17482 0.78381 0.26862 0.01800
C 	C 	0.21265 0.42825 0.79013 0.09000
C 	C 	0.21804 0.30498 0.82060 0.08600
C 	C 	0.19052 0.42979 0.28388 0.06800
C 	C 	0.19415 0.32138 0.27665 0.06000
F 	F 	0.12054 0.30411 0.61135 -0.41600
N 	N 	0.21860 0.55817 0.29385 -0.09700
F 	F 	0.24672 0.40030 0.93452 -0.37500
C 	C 	0.23402 0.36808 0.84079 -0.10400
H 	H 	0.23500 0.25935 0.85931 0.10700
N 	N 	0.23059 0.54899 0.80178 -0.06100
F 	F 	0.26123 0.29423 0.96003 -0.40600
F 	F 	0.98530 0.50644 0.79362 -0.35100
F 	F 	0.98063 0.69237 0.25142 -0.37600
O 	O 	0.96623 0.16639 0.17609 -0.28900
C 	C 	0.93968 0.23769 0.23144 0.81400
F 	F 	0.94867 0.57210 0.24516 -0.37200
C 	C 	0.72178 0.31305 0.00920 0.12600
N 	N 	0.78465 0.38337 0.04006 -0.04600
C 	C 	0.75918 0.43450 0.02984 0.12400
N 	N 	0.67214 0.41234 0.99126 -0.06400
C 	C 	0.60468 0.32986 0.98085 0.27100
N 	N 	0.63143 0.28715 0.97944 -0.05900
C 	C 	0.73287 0.31947 0.50926 0.19000
N 	N 	0.64052 0.28754 0.48746 -0.09100
C 	C 	0.61463 0.33159 0.48807 0.19800
N 	N 	0.68195 0.41560 0.49546 -0.10000
C 	C 	0.77166 0.44221 0.52821 0.17800
N 	N 	0.79795 0.39346 0.53544 -0.06100
C 	C 	0.27300 0.64755 0.28792 0.19300
N 	N 	0.35533 0.70267 0.26756 -0.07800
C 	C 	0.38223 0.66935 0.25243 0.19000
N 	N 	0.32530 0.58253 0.25400 -0.09100
C 	C 	0.24648 0.52589 0.27783 0.19500
C 	C 	0.28100 0.63758 0.79548 0.19000
N 	N 	0.36850 0.69443 0.78265 -0.09300
C 	C 	0.40684 0.66265 0.78012 0.19100
N 	N 	0.35942 0.57471 0.79175 -0.08900
C 	C 	0.27023 0.51800 0.79924 0.20000
Co	Co	0.86669 0.96338 0.11688 1.19200
Co	Co	0.95043 0.91948 0.05656 1.19400
Co	Co	0.87699 0.03583 0.22136 1.21500
O 	O 	0.93630 0.01784 0.18082 -0.72000
O 	O 	0.83591 0.90764 0.04715 -0.38600
C 	C 	0.78626 0.06139 0.07360 0.32900
C 	C 	0.27693 0.08723 0.08954 0.31100
C 	C 	0.91247 0.75558 0.05926 0.32900
O 	O 	0.24743 0.00772 0.09597 -0.34800
O 	O 	0.24297 0.09821 0.11859 -0.28700
O 	O 	0.76834 0.01718 0.13482 -0.30900
O 	O 	0.82736 0.04985 0.05210 -0.30500
O 	O 	0.97853 0.05734 0.31383 -0.28500
O 	O 	0.97188 0.81356 0.01924 -0.36300
O 	O 	0.89765 0.78484 0.08865 -0.28100
C 	C 	0.73927 0.84744 0.21911 0.29400
O 	O 	0.79768 0.90125 0.26104 -0.35300
O 	O 	0.77005 0.84858 0.17757 -0.29000
O 	O 	0.95705 0.96498 0.95083 -0.22700
Co	Co	0.88730 0.97377 0.62209 1.19100
Co	Co	0.96588 0.92364 0.56221 1.20200
Co	Co	0.90271 0.04846 0.72821 1.20300
O 	O 	0.95720 0.02297 0.68956 -0.70500
O 	O 	0.85349 0.91482 0.55346 -0.37500
C 	C 	0.84946 0.11176 0.57735 0.30000
C 	C 	0.98730 0.97273 0.85844 0.29300
C 	C 	0.29095 0.08897 0.59758 0.30200
C 	C 	0.92739 0.76205 0.56077 0.31400
O 	O 	0.26184 0.01254 0.59662 -0.31000
O 	O 	0.26112 0.09268 0.63592 -0.26500
O 	O 	0.90842 0.13812 0.63451 -0.30600
O 	O 	0.84245 0.05696 0.55780 -0.26700
O 	O 	0.90603 0.95847 0.82032 -0.30600
O 	O 	0.98481 0.82157 0.51923 -0.35900
O 	O 	0.91205 0.78931 0.59155 -0.29400
C 	C 	0.74198 0.87137 0.69907 0.31700
O 	O 	0.76640 0.94993 0.68917 -0.34000
O 	O 	0.78712 0.86357 0.67874 -0.30900
O 	O 	0.97158 0.97261 0.45600 -0.26900
C 	C 	0.28018 0.37500 0.91558 0.79000
F 	F 	0.37665 0.43715 0.92331 -0.37300
C 	C 	0.57457 0.72928 0.80852 0.05200
C 	C 	0.49507 0.72263 0.75818 0.07000
C 	C 	0.49303 0.74872 0.68701 -0.07700
C 	C 	0.57018 0.77905 0.66832 0.08600
C 	C 	0.65262 0.79349 0.71857 0.03100
C 	C 	0.65010 0.75775 0.78931 -0.07200
C 	C 	0.72398 0.74443 0.84472 0.78400
H 	H 	0.57402 0.70475 0.86303 0.13800
H 	H 	0.56992 0.79983 0.61412 0.15000
C 	C 	0.40772 0.74213 0.63126 0.79000
F 	F 	0.77211 0.79618 0.89046 -0.40800
F 	F 	0.78779 0.76568 0.81738 -0.41000
F 	F 	0.68010 0.65636 0.88112 -0.36700
F 	F 	0.38443 0.78330 0.64178 -0.38500
F 	F 	0.33207 0.65388 0.63374 -0.38200
F 	F 	0.42476 0.78270 0.56550 -0.34400
C 	C 	0.30756 0.75924 0.81638 0.05300
C 	C 	0.24316 0.67388 0.80374 0.08700
C 	C 	0.27766 0.81128 0.79830 -0.06400
C 	C 	0.35000 0.90657 0.80428 0.78200
H 	H 	0.38199 0.78762 0.83566 0.13500
F 	F 	0.42994 0.91829 0.85517 -0.35000
F 	F 	0.31378 0.93056 0.82158 -0.38500
F 	F 	0.37514 0.96149 0.74155 -0.40100
C 	C 	0.23679 0.39083 0.30481 -0.09000
H 	H 	0.23434 0.30016 0.28418 0.12900
C 	C 	0.33097 0.42267 0.35672 0.79000
F 	F 	0.91081 0.26166 0.25658 -0.38400
F 	F 	0.91215 0.15253 0.26886 -0.47500
F 	F 	0.89417 0.23889 0.16242 -0.42800
F 	F 	0.34086 0.45689 0.40133 -0.36600
F 	F 	0.40318 0.48719 0.32217 -0.38700
F 	F 	0.33810 0.35291 0.39637 -0.39900
C 	C 	0.62743 0.74272 0.29398 0.08000
C 	C 	0.64207 0.77654 0.22742 0.02600
C 	C 	0.56646 0.76696 0.16960 -0.06200
C 	C 	0.48825 0.74747 0.17789 0.05600
C 	C 	0.47774 0.72290 0.24435 0.07700
C 	C 	0.54908 0.72177 0.30329 -0.07900
C 	C 	0.54854 0.71076 0.37467 0.78900
H 	H 	0.68327 0.74376 0.33849 0.11100
H 	H 	0.43199 0.74504 0.13317 0.12400
C 	C 	0.56650 0.77166 0.10060 0.78800
F 	F 	0.61693 0.70038 0.42602 -0.37300
F 	F 	0.46269 0.63717 0.39112 -0.34900
F 	F 	0.56661 0.78562 0.37539 -0.36100
F 	F 	0.59108 0.71960 0.11096 -0.38500
F 	F 	0.63063 0.85817 0.06991 -0.42200
F 	F 	0.47860 0.74120 0.05546 -0.39400
C 	C 	0.23950 0.68589 0.29857 0.08100
C 	C 	0.30345 0.77008 0.31459 -0.09000
C 	C 	0.27120 0.82094 0.29432 0.07300
H 	H 	0.32155 0.89049 0.29507 0.11600
C 	C 	0.40354 0.80409 0.35605 0.79100
F 	F 	0.46256 0.85621 0.31140 -0.38400
F 	F 	0.40966 0.73443 0.40005 -0.34700
F 	F 	0.43363 0.85503 0.39649 -0.35100
C 	C 	0.84974 0.24181 0.49586 0.08700
C 	C 	0.79806 0.15202 0.53131 0.05200
C 	C 	0.71396 0.11532 0.54472 -0.09400
C 	C 	0.69996 0.17204 0.54382 0.06500
C 	C 	0.75800 0.26402 0.51599 0.07500
C 	C 	0.82795 0.29786 0.48520 -0.06500
C 	C 	0.88393 0.39370 0.44523 0.79600
H 	H 	0.91175 0.26986 0.48187 0.14200
H 	H 	0.64135 0.14397 0.56232 0.11300
C 	C 	0.63830 0.01632 0.55982 0.84900
F 	F 	0.91961 0.40286 0.39989 -0.35400
F 	F 	0.95852 0.44553 0.49138 -0.31700
F 	F 	0.82865 0.42401 0.40626 -0.35000
F 	F 	0.63683 0.98450 0.62911 -0.44800
F 	F 	0.65260 0.97184 0.54387 -0.42900
F 	F 	0.55134 0.99900 0.52033 -0.38600
C 	C 	0.96155 0.66120 0.57761 0.11700
C 	C 	0.90375 0.67102 0.58595 -0.00700
C 	C 	0.81629 0.59373 0.60253 -0.04800
C 	C 	0.78197 0.51224 0.59702 0.04100
C 	C 	0.82984 0.50875 0.57003 0.08900
C 	C 	0.92472 0.58138 0.56752 -0.10800
C 	C 	0.98565 0.57596 0.55139 0.81700
H 	H 	0.71350 0.45330 0.60687 0.12100
C 	C 	0.75969 0.59715 0.62608 0.77700
F 	F 	0.95450 0.57389 0.48266 -0.34700
F 	F 	0.98139 0.50060 0.59399 -0.35500
F 	F 	0.72603 0.64416 0.57168 -0.37400
F 	F 	0.81593 0.63769 0.68076 -0.38400
F 	F 	0.68339 0.51306 0.64857 -0.35600
C 	C 	0.35950 0.18692 0.49486 0.08100
C 	C 	0.36997 0.17047 0.56577 0.02100
C 	C 	0.46072 0.21893 0.60762 -0.04900
C 	C 	0.53957 0.26810 0.58168 0.04500
C 	C 	0.52934 0.27972 0.51208 0.06300
C 	C 	0.43895 0.24291 0.46709 -0.07900
C 	C 	0.42697 0.25999 0.39058 0.79200
H 	H 	0.28944 0.15222 0.46239 0.09200
H 	H 	0.60925 0.29619 0.61585 0.10300
C 	C 	0.47368 0.21877 0.67950 0.78000
F 	F 	0.33454 0.22703 0.35408 -0.41100
F 	F 	0.45325 0.21953 0.38269 -0.37800
F 	F 	0.48289 0.35029 0.36212 -0.36500
F 	F 	0.56710 0.27896 0.70797 -0.36200
F 	F 	0.44398 0.13537 0.72326 -0.34800
F 	F 	0.42189 0.24215 0.67576 -0.36100
C 	C 	0.66960 0.16001 0.03211 0.02800
C 	C 	0.74284 0.25166 0.02076 0.12600
C 	C 	0.82478 0.28177 0.00725 -0.14500
C 	C 	0.83727 0.21818 0.01857 0.11100
C 	C 	0.76352 0.12675 0.03139 0.00600
C 	C 	0.67503 0.10072 0.02679 -0.04300
C 	C 	0.58705 0.00826 0.02022 0.74500
H 	H 	0.60575 0.13543 0.04101 0.11100
H 	H 	0.90547 0.23972 0.02084 0.09300
C 	C 	0.90129 0.37954 0.98547 0.88600
F 	F 	0.50830 0.00827 0.98596 -0.31400
F 	F 	0.57597 0.95157 0.08542 -0.42900
F 	F 	0.59300 0.97756 0.98253 -0.32000
F 	F 	0.95851 0.41371 0.04339 -0.39000
F 	F 	0.86330 0.42545 0.93788 -0.35000
F 	F 	0.95628 0.39231 0.95456 -0.35000
C 	C 	0.76007 0.50453 0.09258 0.03700
C 	C 	0.81281 0.49828 0.07356 0.11100
C 	C 	0.90972 0.56831 0.07808 -0.12300
C 	C 	0.94471 0.65012 0.08337 0.13600
C 	C 	0.88451 0.66277 0.08430 0.01000
C 	C 	0.79291 0.58739 0.09425 -0.03000
C 	C 	0.72980 0.59460 0.10566 0.77900
H 	H 	0.68937 0.44689 0.09840 0.11900
C 	C 	0.97627 0.55621 0.07888 0.82100
F 	F 	0.64594 0.51260 0.11868 -0.36600
F 	F 	0.70845 0.64848 0.04726 -0.39200
F 	F 	0.77509 0.62999 0.16217 -0.36000
F 	F 	0.96350 0.55779 0.01266 -0.38000
F 	F 	0.95919 0.47632 0.12377 -0.38500
C 	C 	0.34881 0.18244 0.98826 0.12300
C 	C 	0.35899 0.16446 0.05941 -0.03200
C 	C 	0.44990 0.20784 0.10282 -0.06100
C 	C 	0.52889 0.26077 0.07573 0.07000
C 	C 	0.51891 0.27593 0.00532 -0.05900
C 	C 	0.42836 0.23813 0.96055 -0.02400
C 	C 	0.41648 0.25449 0.88417 0.77100
H 	H 	0.27869 0.14961 0.95533 0.08500
H 	H 	0.59866 0.28844 0.10977 0.09100
C 	C 	0.46276 0.19549 0.17859 0.78000
F 	F 	0.32310 0.21554 0.84834 -0.42200
F 	F 	0.44948 0.21949 0.87704 -0.36200
F 	F 	0.46696 0.34475 0.85435 -0.36700
F 	F 	0.42603 0.10765 0.21367 -0.39700
F 	F 	0.41689 0.21956 0.18338 -0.37100
F 	F 	0.55684 0.24732 0.21106 -0.37300
