data_crystal

_cell_length_a     6.96730
_cell_length_b    15.32294
_cell_length_c    15.34677

_cell_angle_alpha 118.55320
_cell_angle_beta  98.58661
_cell_angle_gamma 98.60678
 
_symmetry_space_group_name_Hall 'P 1'
_symmetry_space_group_name_H-M  'P 1'
 
loop_
_symmetry_equiv_pos_as_xyz
 'x,y,z' 
 
loop_
_atom_site_label
_atom_site_type_symbol
_atom_site_fract_x
_atom_site_fract_y
_atom_site_fract_z
_atom_site_charge
Mg	Mg	0.78339	   0.67398	0.26668	     1.56
Mg	Mg	0.21657	   0.32964	0.73324	     1.56
Mg	Mg	0.51663	   0.73333	0.40745	     1.56
Mg	Mg	0.48315	   0.26665	0.58895	     1.56
Mg	Mg	0.10826	   0.58897	0.3258	     1.56
Mg	Mg	0.88361	   0.41111	0.67411	     1.56
H	H	0.63458	   0.97871	0.44987	     0.186
H	H	1.36648	   1.02301	0.54992	     0.186
H	H	0.18227	   0.55202	0.52874	     0.186
H	H	0.8124	   0.44926	0.47034	     0.186
H	H	0.65442	   0.47136	0.02155	     0.186
H	H	1.34204	   0.52963	-0.02205     0.186
C_a	C	1.17758	   0.82754	0.43358	     0.9
C_a	C	0.82286	   1.17384	0.56563	     0.9
C_a	C	0.7426	   0.56619	0.39427	     0.9
C_a	C	0.25216	   0.43444	0.60445	     0.9
C_a	C	1.34856	   0.60357	0.17206	     0.9
C_a	C	0.64768	   0.39755	-0.17251     0.9
C_b	C	1.08006	   0.91409	0.46419	     -0.314
C_b	C	0.92094	   1.08766	0.53552	     -0.314
C_b	C	0.61385	   0.53626	0.44954	     -0.314
C_b	C	0.38069	   0.46492	0.54929	     -0.314
C_b	C	1.16458	   0.54922	0.08592	     -0.314
C_b	C	0.8318	   0.45174	-0.08652     -0.314
C_c	C	0.86752	   0.89977	0.43447	     0.456
C_c	C	1.13357	   1.10218	0.56529	     0.456
C_c	C	0.4316	   0.5668	0.4658	     0.456
C_c	C	0.56315	   0.43454	0.53309	     0.456
C_c	C	0.96641	   0.53328	0.10035	     0.456
C_c	C	1.02988	   0.46791	-0.10088     0.456
C_d	C	0.79542	   0.98803	0.47177	     -0.234
C_d	C	1.20563	   1.01377	0.52803	     -0.234
C_d	C	0.32086	   0.52951	0.51555	     -0.234
C_d	C	0.67379	   0.47176	0.4834	     -0.234
C_d	C	0.80603	   0.48452	0.01248	     -0.234
C_d	C	1.19038	   0.51646	-0.01303     -0.234
O_a	O	1.06683	   0.73485	0.37155	     -0.899
O_a	O	0.93184	   1.26665	0.62872	     -0.899
O_a	O	0.69584	   0.62873	0.36533	     -0.899
O_a	O	0.30154	   0.37212	0.63308	     -0.899
O_a	O	1.33002	   0.63135	0.26385	     -0.899
O_a	O	0.665	   0.36882	-0.26473     -0.899
O_b	O	1.36575	   0.84477	0.46752	     -0.752
O_b	O	0.63502	   1.15619	0.53004	     -0.752
O_b	O	0.89555	   0.5309	0.37616	     -0.752
O_b	O	0.09847	   0.46887	0.62276	     -0.752
O_b	O	1.51982	   0.62238	0.15597	     -0.752
O_b	O	0.47671	   0.37996	-0.15571     -0.752
O_c	O	0.73366	   0.8068	0.37306	     -0.903
O_c	O	1.26673	   1.1953	0.62612	     -0.903
O_c	O	0.3606	   0.62835	0.4355	     -0.903
O_c	O	0.635	   0.37288	0.56318	     -0.903
O_c	O	0.92558	   0.56292	0.19279	     -0.903
O_c	O	1.07012	   0.43885	-0.1933	     -0.903
