data_crystal

_audit_creation_method 'AiiDA-DDEC plugin'

_cell_length_a        22.13711
_cell_length_b        23.66226
_cell_length_c         6.76563

_cell_angle_alpha     88.74513
_cell_angle_beta     107.02940
_cell_angle_gamma     58.09495

_symmetry_space_group_name_Hall 'P 1'
_symmetry_space_group_name_H-M  'P 1'

loop_
_symmetry_equiv_pos_as_xyz
 'x,y,z'

loop_
_atom_site_label
_atom_site_type_symbol
_atom_site_fract_x
_atom_site_fract_y
_atom_site_fract_z
_atom_site_charge
Al         Al      0.99725   0.00127   0.99118   1.67966
Al         Al      0.49771   0.00471   0.95704   1.68129
Al         Al     -0.00136   0.50501   0.96750   1.68107
Al         Al      0.49978   0.50230   0.97997   1.67833
Al         Al      0.99767  -0.00028   0.49403   1.68523
Al         Al      0.49594   0.00091   0.45832   1.68625
Al         Al      0.99795   0.50328   0.46890   1.68457
Al         Al      0.49836   0.50336   0.48047   1.68305
H          H       0.49189   0.08057   0.68613   0.44128
H          H       0.67242   0.29992   0.21554   0.09945
H          H       0.82200   0.19881   0.75352   0.14219
H          H       0.79392   0.18340   0.34856   0.12621
H          H       0.70793   0.97972   0.12098   0.12128
H          H       0.83092   0.97123   0.27349   0.10690
H          H       0.66776   0.02183   0.69955   0.13751
H          H       0.20376   0.97444   0.13465   0.12361
H          H       0.17098   0.02803   0.71400   0.13267
H          H       0.32538   0.96949   0.25764   0.10512
H          H       0.67044   0.54053   0.08768   0.12231
H          H       0.69283   0.49142   0.73015   0.13616
H          H       0.79589   0.52912   0.22187   0.10544
H          H       0.19228   0.48963   0.72732   0.13578
H          H       0.17696   0.53379   0.08956   0.12140
H          H       0.30121   0.52388   0.23095   0.10757
H          H       0.19279   0.32510   0.61386   0.10466
H          H       0.31760   0.21032   0.71821   0.12600
H          H       0.30692   0.18346   0.33278   0.13785
H          H       0.16643   0.80056   0.61129   0.10466
H          H       0.28955   0.68552   0.71561   0.12451
H          H       0.32704   0.69607   0.36842   0.13780
H          H       0.66904   0.80130   0.58615   0.10366
H          H       0.79298   0.68647   0.70019   0.12530
H          H       0.82327   0.70056   0.34868   0.13741
H          H       0.01220   0.06732   0.74895   0.43844
H          H       0.00984   0.57285   0.71895   0.44162
H          H       0.50792   0.57347   0.73486   0.44032
H          H       0.00317   0.42584   0.22796   0.42960
H          H       0.51273   0.42113   0.24918   0.43306
H          H       0.34963   0.01250   0.94676   0.31243
H          H       0.26536   0.03200   0.97582   0.29798
H          H       0.84554   0.00600   0.96142   0.31070
H          H       0.76042   0.02515   0.98007   0.29380
H          H       0.36692   0.48178   0.96922   0.31790
H          H       0.29735   0.47418   0.01334   0.29373
H          H       0.86483   0.48809   0.96389   0.31709
H          H       0.79635   0.47880   0.01049   0.29488
H          H       0.64504   0.36408   0.51360   0.30363
H          H       0.73012   0.30133   0.49120   0.30240
H          H       0.13419   0.35087   0.23323   0.31033
H          H       0.20190   0.27192   0.41073   0.29239
H          H       0.14512   0.85681   0.26106   0.30843
H          H       0.23146   0.79393   0.45366   0.29786
H          H       0.64378   0.86328   0.22971   0.30893
H          H       0.72886   0.79947   0.42484   0.29689
H          H      -0.00040   0.92409   0.24956   0.43881
H          H       0.49890   0.92634   0.20742   0.43825
C          C       0.10476   0.01059   0.34260   0.63857
C          C       0.17896   0.00438   0.41571  -0.02147
C          C       0.22282   0.98625   0.28482  -0.15405
C          C       0.20555   0.01431   0.61570  -0.21413
C          C       0.29024   0.98283   0.35506  -0.08750
C          C       0.27693   0.00616   0.69513   0.29962
C          C       0.31830   0.99363   0.55558  -0.17524
C          C       0.38925   0.99154   0.61272   0.64559
C          C       0.60421   0.01237   0.31300   0.63901
C          C       0.67920   0.00454   0.40022  -0.01820
C          C       0.72544   0.98883   0.27730  -0.15624
C          C       0.70418   0.01035   0.60776  -0.20522
C          C       0.79374   0.98333   0.36373  -0.08914
C          C       0.77568   0.00114   0.70116   0.29635
C          C       0.81976   0.99073   0.57158  -0.17522
C          C       0.89085   0.98850   0.64359   0.65297
C          C       0.39099   0.49381   0.62268   0.65273
C          C       0.31724   0.50087   0.55593  -0.17790
C          C       0.27713   0.51483   0.33728  -0.09028
C          C       0.28388   0.49586   0.70117   0.30094
C          C       0.20863   0.52036   0.25810  -0.15296
C          C       0.21630   0.49751   0.61932  -0.21000
C          C       0.17900   0.50986   0.40270  -0.01547
C          C       0.10639   0.51319   0.32740   0.64357
C          C       0.60487   0.51511   0.33476   0.63704
C          C       0.67609   0.51410   0.40382  -0.01881
C          C       0.70355   0.52626   0.25545  -0.15058
C          C       0.71507   0.50085   0.61945  -0.21497
C          C       0.77244   0.52022   0.33062  -0.09055
C          C       0.78218   0.50002   0.69727   0.30245
C          C       0.81421   0.50538   0.54833  -0.17698
C          C       0.88858   0.49697   0.61249   0.64789
C          C       0.60606   0.38376   0.84533   0.64942
C          C       0.67701   0.31474   0.90889  -0.17179
C          C       0.70639   0.27721   0.11639  -0.09239
C          C       0.71738   0.28480   0.76979   0.29314
C          C       0.77385   0.21313   0.19210  -0.14643
C          C       0.78838   0.22127   0.85272  -0.21631
C          C       0.81622   0.18586   0.05895  -0.01939
C          C       0.89024   0.11749   0.13588   0.63531
C          C       0.10577   0.38564   0.83254   0.65047
C          C       0.17956   0.31886   0.91069  -0.17433
C          C       0.21429   0.28085   0.12371   0.29696
C          C       0.21818   0.29216   0.76929  -0.09550
C          C       0.28174   0.21500   0.17554  -0.20684
C          C       0.28686   0.22926   0.82557  -0.15513
C          C       0.31781   0.18973   0.03102  -0.02041
C          C       0.39027   0.12036   0.10056   0.63825
C          C       0.39189   0.61892   0.11585   0.64383
C          C       0.31674   0.68600   0.04934  -0.01659
C          C       0.29087   0.71910   0.20293  -0.20789
C          C       0.27116   0.71405   0.83292  -0.14984
C          C       0.21846   0.78108   0.14792   0.29809
C          C       0.20282   0.77710   0.77711  -0.09175
C          C       0.17551   0.81259   0.92849  -0.17321
C          C       0.10425   0.88140   0.85146   0.64922
C          C       0.89147   0.62104   0.10473   0.64302
C          C       0.81651   0.68854   0.03246  -0.01344
C          C       0.78889   0.72288   0.18181  -0.21011
C          C       0.77289   0.71572   0.81445  -0.14918
C          C       0.71691   0.78555   0.12108   0.30037
C          C       0.70434   0.77882   0.75315  -0.09098
C          C       0.67530   0.81571   0.90012  -0.17617
C          C       0.60361   0.88407   0.81843   0.65222
N          N       0.30371   0.00913   0.90216  -0.59230
N          N       0.80073   0.00100   0.91287  -0.59525
N          N       0.31349   0.49156   0.91355  -0.59347
N          N       0.81268   0.49529   0.90918  -0.59465
N          N       0.69023   0.31441   0.55883  -0.59775
N          N       0.18615   0.30574   0.28008  -0.59431
N          N       0.19206   0.80792   0.30592  -0.59543
N          N       0.68983   0.81398   0.27619  -0.59234
O          O       0.99780   0.03499   0.74000  -0.99584
O          O       0.49652   0.03752   0.70194  -0.99799
O          O      -0.00101   0.53814   0.71567  -0.99406
O          O       0.49974   0.53707   0.72936  -0.99620
O          O       0.99766   0.46935   0.21912  -0.99018
O          O       0.49924   0.46763   0.23223  -0.99200
O          O       0.07971   0.00830   0.14916  -0.61030
O          O       0.07251   0.01730   0.47736  -0.60926
O          O       0.41705   0.99515   0.80397  -0.61679
O          O       0.41872   0.98637   0.47121  -0.60876
O          O       0.58043   0.01137   0.11733  -0.60709
O          O       0.56983   0.01912   0.44145  -0.61192
O          O       0.91601   0.99255   0.83655  -0.60981
O          O       0.92320   0.98292   0.50968  -0.61013
O          O       0.41560   0.49752   0.47704  -0.60938
O          O       0.42704   0.48331   0.82185  -0.61612
O          O       0.08016   0.51051   0.46951  -0.61407
O          O       0.07593   0.51891   0.12915  -0.61097
O          O       0.57224   0.52265   0.13686  -0.60760
O          O       0.58259   0.50798   0.48190  -0.61465
O          O       0.92288   0.48950   0.81068  -0.61647
O          O       0.91554   0.49629   0.46827  -0.61089
O          O       0.58311   0.41146   0.99178  -0.61244
O          O       0.57173   0.41156   0.64617  -0.61715
O          O       0.92212   0.09231   0.00145  -0.61119
O          O       0.91543   0.08963   0.33069  -0.59901
O          O       0.07765   0.41418   0.97185  -0.62083
O          O       0.07391   0.41073   0.63277  -0.61436
O          O       0.42197   0.09644   0.96476  -0.60921
O          O       0.41457   0.09065   0.29261  -0.60669
O          O       0.42808   0.59409   0.31480  -0.61465
O          O       0.41435   0.59129   0.96955  -0.59763
O          O       0.07908   0.90930   0.65563  -0.61611
O          O       0.07205   0.90904   0.98487  -0.61816
O          O       0.92409   0.59492   0.30303  -0.60902
O          O       0.91697   0.59455   0.96092  -0.60555
O          O       0.57643   0.91041   0.62008  -0.61329
O          O       0.57240   0.91341   0.95156  -0.61615
O          O       0.99785   0.96593   0.24442  -0.99651
O          O       0.49703   0.96823   0.20787  -0.99614
