data_crystal

_audit_creation_method 'AiiDA-DDEC plugin'

_cell_length_a        21.22771
_cell_length_b        21.22856
_cell_length_c        10.66746

_cell_angle_alpha     90.02772
_cell_angle_beta     90.07822
_cell_angle_gamma     90.01600

_symmetry_space_group_name_Hall 'P 1'
_symmetry_space_group_name_H-M  'P 1'

loop_
_symmetry_equiv_pos_as_xyz
 'x,y,z'

loop_
_atom_site_label
_atom_site_type_symbol
_atom_site_fract_x
_atom_site_fract_y
_atom_site_fract_z
_atom_site_charge
Al         Al      0.31898  -0.00122   0.00409   1.66863
Al         Al      0.68222   0.00094  -0.00268   1.66963
Al         Al      0.74925   0.93261   0.74774   1.66958
Al         Al      0.24922   0.93252   0.75478   1.67296
Al         Al      0.75097   0.06787   0.24739   1.67054
Al         Al      0.25107   0.06603   0.25336   1.67053
Al         Al      0.18278  -0.00004   0.50345   1.66653
Al         Al      0.81762  -0.00074   0.49779   1.67003
Al         Al      0.25085   0.56749   0.74712   1.66607
Al         Al      0.18263   0.50065   0.49728   1.66745
Al         Al      0.24937   0.43280   0.24744   1.66602
Al         Al      0.68272   0.50093   0.00276   1.66787
Al         Al      0.75061   0.56767   0.75280   1.66717
Al         Al      0.74895   0.43223   0.25326   1.66862
Al         Al      0.31737   0.49923   0.99677   1.66415
Al         Al      0.81740   0.49914   0.50278   1.66841
H          H       0.21652   0.99655   0.08966   0.42365
H          H       0.25369   0.96450   0.34371   0.42294
H          H       0.24905   0.03488   0.84253   0.42343
H          H       0.28455   0.00303   0.59299   0.42309
H          H       0.75587   0.96628   0.15556   0.42452
H          H       0.71628   0.99412   0.40550   0.42434
H          H       0.74421   0.03432   0.65527   0.42495
H          H       0.78405   0.00506   0.90743   0.42391
H          H       0.75399   0.46575   0.84231   0.42365
H          H       0.78459   0.50373   0.09242   0.42288
H          H       0.74553   0.53439   0.34284   0.42469
H          H       0.71548   0.49588   0.59217   0.42355
H          H       0.21568   0.49742   0.90931   0.42281
H          H       0.24637   0.53438   0.15757   0.42266
H          H       0.28413   0.50342   0.40860   0.42342
H          H       0.25369   0.46549   0.65784   0.42360
H          H       0.06462   0.89680   0.95349   0.15786
H          H       0.93454   0.89697   0.95311   0.15795
H          H       0.56633   0.10562   0.45024   0.15792
H          H       0.43631   0.10526   0.45197   0.15765
H          H       0.35534   0.68362   0.19893   0.15743
H          H       0.35644   0.81380   0.20060   0.15796
H          H       0.93569   0.60079   0.95487   0.15738
H          H       0.06597   0.60012   0.95450   0.15731
H          H       0.93412   0.39639   0.04762   0.15774
H          H       0.06425   0.39624   0.04740   0.15815
H          H       0.06647   0.10102   0.04980   0.15789
H          H       0.93615   0.10320   0.04993   0.15765
H          H       0.14877   0.81589   0.29965   0.15796
H          H       0.14796   0.68559   0.29867   0.15715
H          H       0.56433   0.89568   0.54785   0.15727
H          H       0.43430   0.89593   0.54802   0.15776
H          H       0.64602   0.18579   0.79757   0.15766
H          H       0.64667   0.31594   0.79779   0.15747
H          H       0.85347   0.31435   0.70316   0.15733
H          H       0.85372   0.18413   0.70196   0.15814
H          H       0.35540   0.31380   0.80283   0.15746
H          H       0.35521   0.18354   0.80412   0.15778
H          H       0.14727   0.18499   0.69963   0.15808
H          H       0.14810   0.31524   0.69961   0.15719
H          H       0.64561   0.81610   0.20080   0.15798
H          H       0.64526   0.68591   0.20147   0.15744
H          H       0.85204   0.81457   0.29751   0.15674
H          H       0.85181   0.68426   0.29739   0.15775
H          H       0.56524   0.60431   0.54856   0.15735
H          H       0.43501   0.60430   0.54856   0.15766
H          H       0.56453   0.39728   0.45078   0.15756
H          H       0.43437   0.39878   0.45161   0.15786
C          C       0.61357   0.95827   0.77978   0.59072
C          C       0.55134   0.94819   0.72299   0.06766
C          C       0.53279   0.91669   0.61566  -0.17103
C          C       0.38606   0.95836   0.78125   0.58846
C          C       0.44798   0.94843   0.72326   0.06732
C          C       0.46606   0.91682   0.61583  -0.17194
C          C       0.61438   0.04184   0.21919   0.58730
C          C       0.55238   0.05201   0.27660   0.06760
C          C       0.53443   0.08412   0.38349  -0.17141
C          C       0.38678   0.04103   0.22186   0.59030
C          C       0.44904   0.05178   0.27793   0.06826
C          C       0.46773   0.08398   0.38432  -0.16989
C          C       0.11366   0.95831   0.72089   0.59082
C          C       0.05140   0.94859   0.77759   0.06766
C          C       0.03298   0.91759   0.88542  -0.17139
C          C       0.88591   0.95893   0.71979   0.58752
C          C       0.94802   0.94888   0.77728   0.06706
C          C       0.96624   0.91771   0.88519  -0.17116
C          C       0.11444   0.03949   0.28241   0.58605
C          C       0.05223   0.05037   0.22648   0.06753
C          C       0.03439   0.08136   0.11823  -0.17119
C          C       0.88653   0.04200   0.28148   0.59102
C          C       0.94900   0.05201   0.22640   0.06750
C          C       0.96769   0.08242   0.11818  -0.17074
C          C       0.20941   0.86368   0.53389   0.58821
C          C       0.19931   0.80165   0.47686   0.06669
C          C       0.16874   0.78384   0.36796  -0.17014
C          C       0.20895   0.63602   0.53064   0.59055
C          C       0.19866   0.69847   0.47585   0.06749
C          C       0.16832   0.71715   0.36742  -0.16991
C          C       0.20889   0.13533   0.46964   0.59247
C          C       0.19860   0.19810   0.52365   0.06767
C          C       0.16780   0.21669   0.63147  -0.17073
C          C       0.21015   0.36382   0.46787   0.58671
C          C       0.19939   0.30145   0.52340   0.06784
C          C       0.16835   0.28339   0.63139  -0.17004
C          C       0.69849   0.80232   0.02652   0.06749
C          C       0.66671   0.78423   0.13362  -0.17146
C          C       0.69809   0.69892   0.02686   0.06889
C          C       0.66644   0.71749   0.13387  -0.17118
C          C       0.70849   0.86442   0.96917   0.58751
C          C       0.70826   0.63660   0.97032   0.58935
C          C       0.70824   0.13656   0.02986   0.58991
C          C       0.70868   0.36423   0.03107   0.58781
C          C       0.69823   0.19882   0.97312   0.06857
C          C       0.66704   0.21738   0.86546  -0.17248
C          C       0.69885   0.30220   0.97330   0.06616
C          C       0.66743   0.28411   0.86555  -0.16966
C          C       0.30226   0.80143   0.02715   0.06948
C          C       0.33457   0.78248   0.13325  -0.17198
C          C       0.30131   0.69804   0.02592   0.06730
C          C       0.33395   0.71576   0.13252  -0.17025
C          C       0.29219   0.86404   0.97199   0.58993
C          C       0.29053   0.63603   0.96865   0.58793
C          C       0.29122   0.13498   0.03301   0.58734
C          C       0.29202   0.36351   0.03162   0.59109
C          C       0.30187   0.19751   0.97781   0.06739
C          C       0.33399   0.21553   0.87099  -0.17107
C          C       0.30228   0.30088   0.97698   0.06701
C          C       0.33415   0.28224   0.87039  -0.16908
C          C       0.79247   0.86355   0.53165   0.59180
C          C       0.80315   0.80117   0.47629   0.06795
C          C       0.83263   0.78280   0.36679  -0.17047
C          C       0.79206   0.63571   0.53212   0.58778
C          C       0.80280   0.69790   0.47617   0.06667
C          C       0.83241   0.71607   0.36670  -0.17127
C          C       0.79163   0.13586   0.46919   0.58795
C          C       0.80146   0.19793   0.52669   0.06631
C          C       0.83278   0.21602   0.63453  -0.17134
C          C       0.79086   0.36361   0.47131   0.58984
C          C       0.80131   0.30130   0.52753   0.06779
C          C       0.83275   0.28276   0.63495  -0.17105
C          C       0.11353   0.45800   0.28021   0.59009
C          C       0.05120   0.44836   0.22308   0.06761
C          C       0.03269   0.41720   0.11532  -0.17109
C          C       0.88564   0.45829   0.28107   0.58803
C          C       0.94773   0.44859   0.22317   0.06674
C          C       0.96592   0.41728   0.11542  -0.17125
C          C       0.11416   0.54192   0.71799   0.58822
C          C       0.05200   0.55236   0.77436   0.06684
C          C       0.03399   0.58133   0.88469  -0.17095
C          C       0.88635   0.54229   0.71915   0.59083
C          C       0.94874   0.55280   0.77465   0.06879
C          C       0.96726   0.58162   0.88491  -0.17142
C          C       0.61362   0.45827   0.21862   0.59003
C          C       0.55128   0.44827   0.27412   0.06783
C          C       0.53286   0.41792   0.38260  -0.16989
C          C       0.38590   0.46028   0.21832   0.58658
C          C       0.44806   0.44950   0.27457   0.06791
C          C       0.46617   0.41869   0.38293  -0.17125
C          C       0.61407   0.54168   0.78098   0.58642
C          C       0.55193   0.55163   0.72341   0.06765
C          C       0.53355   0.58321   0.61607  -0.17110
C          C       0.38637   0.54144   0.78003   0.58929
C          C       0.44854   0.55166   0.72333   0.06855
C          C       0.46680   0.58322   0.61603  -0.17129
O          O       0.74623   0.00700   0.11878  -1.00672
O          O       0.61612   0.00916   0.11924  -0.56571
O          O       0.68092   0.09072   0.97452  -0.57955
O          O       0.68170   0.91052   0.02570  -0.60346
O          O       0.74334   0.99643   0.86921  -1.00578
O          O       0.61602   0.99186   0.87873  -0.56195
O          O       0.65940   0.93098   0.72469  -0.58008
O          O       0.49983   0.96852   0.78836  -0.06359
O          O       0.38437   0.99118   0.88102  -0.56736
O          O       0.33988   0.93133   0.72521  -0.60265
O          O       0.66059   0.06849   0.27570  -0.60229
O          O       0.50047   0.03139   0.21226  -0.06413
O          O       0.38431   0.00630   0.12452  -0.56297
O          O       0.34087   0.06892   0.27537  -0.57853
O          O       0.24663   0.00559   0.38140  -1.00473
O          O       0.11669   0.00639   0.38161  -0.56577
O          O       0.18078   0.09011   0.52515  -0.58049
O          O       0.24372   0.99556   0.63137  -1.00432
O          O       0.11623   0.99118   0.62117  -0.56086
O          O       0.15943   0.93131   0.77686  -0.58036
O          O      -0.00019   0.96863   0.71182  -0.06352
O          O       0.18397   0.90972   0.47497  -0.60218
O          O       0.88391   0.99108   0.61927  -0.56596
O          O       0.83975   0.93264   0.77669  -0.60294
O          O       0.16049   0.06587   0.22516  -0.60158
O          O       0.00031   0.03163   0.29291  -0.06240
O          O       0.88388   0.00847   0.38033  -0.56202
O          O       0.84083   0.06897   0.22500  -0.58040
O          O       0.24090   0.86580   0.63533  -0.56778
O          O       0.21843   0.74981   0.54298  -0.06265
O          O       0.24364   0.63315   0.62805  -0.56193
O          O       0.18107   0.59055   0.47530  -0.57889
O          O       0.25576   0.99393   0.88097  -1.00729
O          O       0.25644   0.86784   0.87625  -0.56394
O          O       0.24374   0.13159   0.37290  -0.56380
O          O       0.21867   0.24957   0.45721  -0.06386
O          O       0.24335   0.36627   0.36878  -0.56628
O          O       0.18385   0.40986   0.52540  -0.60374
O          O       0.25697   0.00296   0.13058  -1.00570
O          O       0.25706   0.13170   0.13067  -0.56830
O          O       0.68107   0.59073   0.02557  -0.57979
O          O       0.74106   0.86641   0.86934  -0.56555
O          O       0.71860   0.75044   0.96162  -0.06450
O          O       0.74175   0.63404   0.87147  -0.56057
O          O       0.75371   0.99343   0.61899  -1.00598
O          O       0.75892   0.86611   0.63040  -0.56198
O          O       0.74183   0.13408   0.12878  -0.56085
O          O       0.71866   0.25035   0.03859  -0.06377
O          O       0.74098   0.36615   0.13151  -0.56740
O          O       0.75698   0.00385   0.36880  -1.00679
O          O       0.75910   0.13385   0.36907  -0.56727
O          O       0.68210   0.41036   0.97431  -0.60232
O          O       0.32174   0.90908   0.02532  -0.57814
O          O       0.31701   0.58986   0.02541  -0.60405
O          O       0.28112   0.75010   0.96180  -0.06339
O          O       0.25762   0.63390   0.86899  -0.56682
O          O       0.28161   0.24944   0.04282  -0.06364
O          O       0.25844   0.36636   0.13027  -0.56085
O          O       0.31889   0.08948   0.97608  -0.60191
O          O       0.31903   0.40919   0.97520  -0.57965
O          O       0.81892   0.90942   0.47499  -0.58071
O          O       0.78424   0.74963   0.54336  -0.06203
O          O       0.75904   0.63364   0.63138  -0.56677
O          O       0.81823   0.58958   0.47462  -0.60279
O          O       0.81830   0.08980   0.52599  -0.60222
O          O       0.78126   0.24972   0.46169  -0.06244
O          O       0.75624   0.36634   0.37384  -0.56084
O          O       0.81893   0.40936   0.52550  -0.58017
O          O       0.24344   0.49654   0.36898  -1.00369
O          O       0.11608   0.49114   0.37967  -0.56037
O          O       0.15936   0.43077   0.22488  -0.57925
O          O      -0.00039   0.46855   0.28854  -0.06371
O          O       0.24641   0.50633   0.61923  -1.00385
O          O       0.11636   0.50885   0.61869  -0.56723
O          O       0.88363   0.49100   0.38088  -0.56456
O          O       0.83951   0.43119   0.22502  -0.60382
O          O       0.16021   0.56857   0.77513  -0.60205
O          O       0.00018   0.53427   0.70681  -0.06251
O          O       0.88375   0.50857   0.62039  -0.56248
O          O       0.84057   0.56902   0.77537  -0.57907
O          O       0.74379   0.49621   0.13094  -1.00377
O          O       0.61634   0.49192   0.11995  -0.56127
O          O       0.65926   0.43114   0.27491  -0.57955
O          O       0.49982   0.46844   0.20793  -0.06312
O          O       0.38371   0.49322   0.11879  -0.56591
O          O       0.33987   0.43399   0.27557  -0.60256
O          O       0.74631   0.50649   0.88085  -1.00404
O          O       0.61625   0.50902   0.88080  -0.56501
O          O       0.66010   0.56852   0.72446  -0.60290
O          O       0.50022   0.53133   0.78842  -0.06379
O          O       0.38376   0.50747   0.87838  -0.56022
O          O       0.34062   0.56901   0.72507  -0.57894
O          O       0.75366   0.49359   0.38083  -1.00565
O          O       0.75624   0.50368   0.63084  -1.00448
O          O       0.25347   0.49354   0.11882  -1.00246
O          O       0.25624   0.50364   0.86898  -1.00284
