data_crystal

_audit_creation_method 'AiiDA-DDEC plugin'

_cell_length_a        14.39889
_cell_length_b        14.36540
_cell_length_c        31.73396

_cell_angle_alpha     89.87301
_cell_angle_beta     90.01651
_cell_angle_gamma     120.02394

_symmetry_space_group_name_Hall 'P 1'
_symmetry_space_group_name_H-M  'P 1'

loop_
_symmetry_equiv_pos_as_xyz
 'x,y,z'

loop_
_atom_site_label
_atom_site_type_symbol
_atom_site_fract_x
_atom_site_fract_y
_atom_site_fract_z
_atom_site_charge
Al         Al     -0.00127   0.50659   0.00055   1.68711
Al         Al      0.50660   0.50568   0.00041   1.69105
Al         Al      0.13485   0.07104   0.74983   1.63237
Al         Al      0.00340   0.51098   0.49966   1.69585
Al         Al      0.58702   0.41878   0.91672   1.71164
Al         Al      0.49646  -0.00214   0.00011   1.68621
Al         Al      0.91442   0.07910   0.74882   1.68573
Al         Al      0.58445   0.17022   0.58224   1.71733
Al         Al      0.58305   0.41655   0.58242   1.71054
Al         Al      0.83323   0.41637   0.58229   1.71046
Al         Al      0.50828   0.50767   0.49867   1.68559
Al         Al      0.58388   0.17019   0.91954   1.70644
Al         Al      0.83387   0.42241   0.91771   1.70631
Al         Al      0.49669   0.99721   0.49964   1.68394
Al         Al      0.41593   0.83329   0.41308   1.71125
Al         Al      0.17704   0.59298   0.41704   1.69960
Al         Al      0.41645   0.58635   0.41458   1.71232
Al         Al      0.91335   0.84192   0.74933   1.68731
Al         Al      0.07710   0.93795   0.25003   1.64839
Al         Al      0.08383   0.16820   0.24940   1.69827
Al         Al      0.16597   0.58073   0.08338   1.70533
Al         Al      0.86007   0.93740   0.25078   1.65245
Al         Al      0.41566   0.58535   0.08294   1.72111
Al         Al      0.41610   0.83116   0.08311   1.70378
H          H       0.55663   0.37266   0.98944   0.41264
H          H       0.15281   0.34682   0.27094   0.38135
H          H       0.13587   0.80568   0.27591   0.42688
H          H       0.23377   0.90169   0.25417   0.42218
H          H       0.32705   0.18745   0.72112   0.41742
H          H       0.32014   0.22480   0.76612   0.40461
H          H       0.86946   0.66692   0.76955   0.35894
H          H       0.52741   0.14610   0.84322   0.43468
H          H       0.58364   0.27292   0.85515   0.39668
H          H       0.58951   0.42592   0.83869   0.41671
H          H       0.72896   0.41615   0.85545   0.40557
H          H       0.78911   0.35185   0.84379   0.42696
H          H       0.86385   0.20110   0.77350   0.35459
H          H       0.66544   0.89759   0.24447   0.42587
H          H       0.66624   0.82411   0.28052   0.43539
H          H       0.41158   0.72722   0.14606   0.40241
H          H       0.33691   0.77684   0.15495   0.42519
H          H       0.41147   0.57342   0.16166   0.41874
H          H       0.27439   0.57993   0.14512   0.39504
H          H       0.14874   0.52328   0.16002   0.43835
H          H       0.37855   0.86254   0.34417   0.36508
H          H       0.59099   0.16112   0.66053   0.40979
H          H       0.72801   0.30725   0.64455   0.39253
H          H       0.85405   0.36750   0.65719   0.43129
H          H       0.58613   0.31517   0.64578   0.40086
H          H       0.64716   0.43952   0.65800   0.43017
H          H       0.37326   0.51556   0.34490   0.38369
H          H       0.28323   0.69671   0.35612   0.39759
H          H       0.28236   0.58839   0.35698   0.39652
H          H       0.43126   0.80885   0.00956   0.42759
H          H       0.55709   0.18508   0.99244   0.41791
H          H       0.37257   0.55472   0.00959   0.41790
H          H       0.46856   0.82169   0.48392   0.42071
H          H       0.81675   0.36608   0.98969   0.42642
H          H       0.18392   0.56235   0.00973   0.42191
H          H       0.18573   0.55724   0.48929   0.41192
H          H       0.81067   0.39715   0.50712   0.42722
H          H       0.24377   0.75166   0.05507   0.41942
H          H       0.23079   0.45852   0.07421   0.40481
H          H       0.53783   0.76849   0.06975   0.41528
H          H       0.76925   0.23280   0.92006   0.40915
H          H       0.74728   0.49711   0.95506   0.42128
H          H       0.46153   0.23275   0.92681   0.40304
H          H       0.26474   0.74931   0.45842   0.41948
H          H       0.76890   0.23226   0.56869   0.40439
H          H       0.76978   0.53758   0.57755   0.41570
H          H       0.62275   0.18325   0.50845   0.41320
H          H       0.46361   0.23238   0.56886   0.41293
H          H       0.56532   0.37760   0.50920   0.42527
H          H       0.37940   0.56369   0.48731   0.41115
H          H       0.53682   0.77027   0.40534   0.40280
H          H       0.23394   0.46439   0.43002   0.39742
H          H       0.21430   0.42892   0.95425   0.11704
H          H       0.28717   0.27594   0.85338   0.12683
H          H       0.72108   0.01210   0.64741   0.13841
H          H       0.28836   0.01730   0.64796   0.12726
H          H       0.28202   0.02034   0.85389   0.12741
H          H       0.72105   0.01364   0.85221   0.13934
H          H       0.99157   0.28132   0.85175   0.13350
H          H       0.58083   0.78804   0.54459   0.13020
H          H       0.72026   0.71297   0.65033   0.14574
H          H       0.21403   0.78485   0.54953   0.13461
H          H       0.28744   0.27308   0.64401   0.12733
H          H       0.21080   0.42237   0.54290   0.12309
H          H       0.20627   0.79726   0.95688   0.13131
H          H       0.72628   0.71785   0.85194   0.14544
H          H       0.57012   0.78504   0.95359   0.12380
H          H       0.98837   0.71863   0.65044   0.14381
H          H       0.98567   0.26713   0.64444   0.14052
H          H       0.98462   0.72012   0.85381   0.14150
H          H       0.00988   0.28227   0.14643   0.14155
H          H       0.01421   0.73017   0.15032   0.13779
H          H       0.01763   0.29288   0.35323   0.13572
H          H       0.42902   0.21285   0.04713   0.11912
H          H       0.28029   0.28934   0.14873   0.14314
H          H       0.78874   0.20369   0.04271   0.12969
H          H       0.71769   0.73538   0.14869   0.13542
H          H       0.78687   0.57352   0.04998   0.13336
H          H       0.79043   0.22146   0.45346   0.12244
H          H       0.27192   0.28695   0.35535   0.13271
H          H       0.41367   0.20504   0.45803   0.13118
H          H       0.27965   0.98964   0.14952   0.13759
H          H       0.71099   0.98342   0.14633   0.13374
H          H       0.71698   0.99385   0.35354   0.12547
H          H       0.26655   0.98434   0.35556   0.12191
H          H       0.01785   0.73058   0.35070   0.12583
H          H       0.79513   0.58347   0.45285   0.13838
H          H       0.71383   0.72276   0.34943   0.12673
C          C       0.13579   0.27161   0.84870  -0.03531
C          C       0.06700   0.30269   0.86723  -0.06913
C          C       0.09517   0.36018   0.90522  -0.06278
C          C       0.19251   0.38558   0.92462  -0.08428
C          C       0.10197   0.20616   0.80887   0.61513
C          C       0.02456   0.39675   0.92507   0.64267
C          C       0.23375   0.29948   0.86795  -0.07823
C          C       0.26253   0.35652   0.90604  -0.05899
C          C       0.36815   0.38950   0.92645   0.63584
C          C       0.72755   0.86617   0.65198  -0.04466
C          C       0.69977   0.93600   0.63240  -0.07504
C          C       0.64628   0.90780   0.59367  -0.06552
C          C       0.62102   0.80984   0.57491  -0.07863
C          C       0.79152   0.89970   0.69165   0.61041
C          C       0.61411   0.97993   0.57252   0.64000
C          C       0.69922   0.76657   0.63403  -0.07737
C          C       0.64599   0.73844   0.59527  -0.06843
C          C       0.61414   0.63358   0.57485   0.64002
C          C       0.13446   0.87204   0.65259  -0.04512
C          C       0.06466   0.77098   0.63497  -0.07341
C          C       0.09337   0.73930   0.59783  -0.06243
C          C       0.19199   0.80879   0.57857  -0.07675
C          C       0.09950   0.90601   0.69118   0.61886
C          C       0.02268   0.63276   0.57763   0.63818
C          C       0.23402   0.93992   0.63380  -0.08161
C          C       0.26303   0.90818   0.59666  -0.06380
C          C       0.36912   0.97737   0.57597   0.63860
C          C       0.13211   0.26172   0.64802  -0.04237
C          C       0.23164   0.29323   0.62926  -0.07734
C          C       0.26007   0.35141   0.59134  -0.05672
C          C       0.18880   0.37768   0.57231  -0.07999
C          C       0.09868   0.19743   0.68817   0.62125
C          C       0.36733   0.39015   0.57161   0.63379
C          C       0.06191   0.29060   0.62914  -0.07651
C          C       0.09036   0.34883   0.59126  -0.06399
C          C       0.02079   0.38581   0.57119   0.64260
C          C       0.12944   0.87461   0.85037  -0.03639
C          C       0.22810   0.94439   0.86928  -0.08086
C          C       0.25625   0.91624   0.90755  -0.06762
C          C       0.18485   0.81864   0.92705  -0.08268
C          C       0.09745   0.90635   0.81008   0.61575
C          C       0.36239   0.98500   0.92767   0.64171
C          C       0.05997   0.77503   0.86923  -0.06538
C          C       0.08760   0.74720   0.90776  -0.06080
C          C       0.01802   0.64074   0.92818   0.63836
C          C       0.73138   0.86978   0.84922  -0.03068
C          C       0.70208   0.77000   0.86733  -0.07160
C          C       0.64373   0.73954   0.90500  -0.06577
C          C       0.61428   0.80874   0.92411  -0.08537
C          C       0.79883   0.90426   0.81016   0.61504
C          C       0.61142   0.63411   0.92519   0.64487
C          C       0.69936   0.93762   0.86753  -0.07735
C          C       0.64043   0.90711   0.90514  -0.07728
C          C       0.60460   0.97704   0.92516   0.64771
C          C       0.27304   0.13617   0.15258  -0.04623
C          C       0.30240   0.06606   0.13437  -0.07770
C          C       0.35951   0.09413   0.09639  -0.06332
C          C       0.38635   0.19192   0.07692  -0.07921
C          C       0.20666   0.10458   0.19175   0.61768
C          C       0.39340   0.02246   0.07626   0.64538
C          C       0.30260   0.23541   0.13362  -0.06789
C          C       0.35941   0.26340   0.09555  -0.06297
C          C       0.39356   0.36891   0.07466   0.64145
C          C       0.86459   0.12950   0.14993  -0.04458
C          C       0.93463   0.22830   0.13077  -0.07570
C          C       0.90743   0.25605   0.09222  -0.06604
C          C       0.81047   0.18384   0.07280  -0.07763
C          C       0.89802   0.10043   0.19017   0.62077
C          C       0.97794   0.36289   0.07230   0.64307
C          C       0.76624   0.05916   0.13109  -0.07623
C          C       0.73947   0.08636   0.09236  -0.05891
C          C       0.63372   0.01522   0.07227   0.63079
C          C       0.86992   0.74086   0.15290  -0.04824
C          C       0.77043   0.71065   0.13427  -0.07601
C          C       0.74020   0.65006   0.09711  -0.06010
C          C       0.80969   0.61949   0.07903  -0.07530
C          C       0.90427   0.81047   0.19132   0.62767
C          C       0.63490   0.61614   0.07608   0.63435
C          C       0.93792   0.70753   0.13526  -0.07436
C          C       0.90770   0.64633   0.09823  -0.05927
C          C       0.97709   0.60852   0.07811   0.63788
C          C       0.87145   0.13888   0.34962  -0.05883
C          C       0.77184   0.07029   0.36817  -0.07948
C          C       0.74183   0.10016   0.40542  -0.05309
C          C       0.81274   0.19845   0.42427  -0.07653
C          C       0.90327   0.10582   0.31020   0.64303
C          C       0.63304   0.02930   0.42408   0.63067
C          C       0.94112   0.23872   0.36807  -0.07338
C          C       0.91184   0.26854   0.40558  -0.05673
C          C       0.98297   0.37577   0.42544   0.63174
C          C       0.26053   0.13154   0.35142  -0.05765
C          C       0.29110   0.23075   0.37051  -0.07710
C          C       0.34685   0.25754   0.40877  -0.05713
C          C       0.37078   0.18489   0.42826  -0.07814
C          C       0.19975   0.10336   0.31088   0.63887
C          C       0.38635   0.36522   0.42818   0.63285
C          C       0.28791   0.06046   0.37048  -0.08176
C          C       0.34289   0.08731   0.40891  -0.04978
C          C       0.38023   0.01743   0.42842   0.63477
C          C       0.87017   0.73569   0.34602  -0.06686
C          C       0.94102   0.70808   0.36515  -0.07726
C          C       0.91377   0.65256   0.40349  -0.04920
C          C       0.81555   0.62473   0.42261  -0.06878
C          C       0.90283   0.80235   0.30714   0.64416
C          C       0.98690   0.62036   0.42434   0.63042
C          C       0.77012   0.70384   0.36455  -0.07887
C          C       0.74268   0.64831   0.40289  -0.05285
C          C       0.63606   0.61261   0.42328   0.63049
O          O       0.00889   0.17610   0.79567  -0.56024
O          O       0.05675   0.44722   0.96007  -0.61852
O          O       0.16983   0.18452   0.79172  -0.62111
O          O       0.43444   0.37088   0.90646  -0.62045
O          O       0.38433   0.43531   0.96238  -0.61661
O          O       0.00618   0.16877   0.70187  -0.55179
O          O       0.99041  -0.00004   0.75001  -1.26026
O          O       0.00530   0.84391   0.70377  -0.56081
O          O       0.00941   0.83824   0.79387  -0.57213
O          O       0.62477   0.06108   0.59348  -0.62852
O          O       0.85277   0.16155   0.74771  -0.98971
O          O       0.43561   0.06539   0.59430  -0.61932
O          O       0.43458   0.06484   0.90645  -0.64766
O          O       0.31024   0.16241   0.75020  -0.71127
O          O       0.62443   0.06436   0.90640  -0.60622
O          O       0.93808   0.37617   0.90582  -0.61438
O          O       0.56126   0.13201   0.52473  -1.01316
O          O       0.54087   0.27286   0.57264  -0.96219
O          O       0.61173   0.21695   0.63938  -0.91426
O          O       0.57444   0.43955   0.52484  -1.01482
O          O       0.73066   0.46001   0.58122  -0.96991
O          O       0.58285   0.38456   0.64390  -0.76706
O          O       0.73073   0.27211   0.56857  -0.96649
O          O       0.86881   0.44713   0.52497  -1.01449
O          O       0.80092   0.37963   0.64311  -0.78794
O          O       0.16666   0.17628   0.70573  -0.64624
O          O       0.94048   0.56151   0.59790  -0.60594
O          O       0.43320   0.37148   0.59168  -0.61005
O          O       0.93717   0.36966   0.59156  -0.63670
O          O       0.62344   0.56216   0.59598  -0.61628
O          O       0.61266   0.06229   0.45843  -0.61821
O          O       0.41047   0.03632   0.46674  -0.59247
O          O       0.81560   0.99118   0.70633  -0.56255
O          O       0.57745   0.95379   0.53514  -0.60949
O          O       0.43991   0.86545   0.47296  -1.00201
O          O       0.27361   0.73615   0.42907  -0.98023
O          O       0.38842   0.80637   0.35639  -0.93437
O          O       0.81667   0.83360   0.70671  -0.55619
O          O       0.57861   0.62287   0.53746  -0.58186
O          O       0.05187   0.62109   0.54111  -0.58814
O          O       0.13768   0.57666   0.47545  -1.00622
O          O       0.27250   0.54210   0.43326  -0.97363
O          O       0.22706   0.61539   0.36058  -0.83073
O          O       0.16736   0.99559   0.70845  -0.61545
O          O       0.38554   0.94227   0.54162  -0.58291
O          O       0.38497   0.44035   0.53664  -0.60879
O          O       0.44456   0.57717   0.47304  -1.00290
O          O       0.46652   0.73495   0.41862  -0.94481
O          O       0.38361   0.58041   0.35837  -0.94396
O          O       0.05093   0.43260   0.53556  -0.60311
O          O       0.16214   0.00047   0.79577  -0.59561
O          O       0.37456   0.95795   0.96460  -0.60160
O          O       0.04127   0.62959   0.96612  -0.60551
O          O       0.82455   0.83807   0.79586  -0.58097
O          O       0.61966   0.56307   0.90397  -0.60581
O          O       0.57608   0.62278   0.96287  -0.60351
O          O       0.84528   0.69768   0.74816  -0.99385
O          O       0.82343   0.99599   0.79560  -0.58479
O          O       0.55493   0.94406   0.96027  -0.60977
O          O       0.06377   0.62537   0.40272  -0.57451
O          O       0.56989   0.94437   0.40394  -0.59648
O          O       0.36608   0.43024   0.40861  -0.61189
O          O       0.38237   0.94756   0.40473  -0.60201
O          O       0.06970   0.44030   0.40630  -0.59078
O          O       0.56552   0.62126   0.40213  -0.59234
O          O       0.43939   0.38367   0.46248  -0.61637
O          O       0.62553   0.57444   0.46040  -0.58391
O          O       0.94237   0.56784   0.90643  -0.58917
O          O       0.96282   0.58820   0.46243  -0.59586
O          O       0.94856   0.39328   0.46004  -0.62073
O          O       0.06012   0.43077   0.09344  -0.63868
O          O       0.05932   0.61983   0.09814  -0.60239
O          O       0.00590   0.01238   0.25000  -1.26908
O          O       0.13349   0.57450   0.02566  -1.00790
O          O       0.18385   0.01398   0.20842  -0.61411
O          O       0.43751   0.05230   0.04006  -0.60720
O          O       0.17721   0.16838   0.20480  -0.53577
O          O       0.37498   0.43587   0.09412  -0.62331
O          O       0.43995   0.38402   0.03896  -0.61096
O          O       0.99233   0.16301   0.20229  -0.54809
O          O       0.95034   0.37939   0.03608  -0.60626
O          O       0.82852   0.01355   0.20886  -0.62381
O          O       0.62020   0.04137   0.03543  -0.59813
O          O       0.83922   0.83795   0.20608  -0.58847
O          O       0.56470   0.62924   0.09592  -0.61454
O          O       0.62307   0.57542   0.03953  -0.58414
O          O       0.99669   0.83784   0.20616  -0.59102
O          O       0.94714   0.56626   0.04175  -0.59180
O          O       0.83778   0.01164   0.29571  -0.64807
O          O       0.99198   0.17217   0.29358  -0.58607
O          O       0.17516   0.16966   0.29579  -0.57502
O          O       0.15410   0.31083   0.24549  -1.00532
O          O       0.17660   0.01270   0.29398  -0.65481
O          O       0.43624   0.56922   0.02520  -1.01197
O          O       0.57034   0.13506   0.97678  -1.00580
O          O       0.73142   0.27269   0.92292  -0.97957
O          O       0.58796   0.20322   0.85828  -0.78882
O          O       0.86409   0.43402   0.97583  -1.00944
O          O       0.73163   0.46316   0.92749  -0.96834
O          O       0.80067   0.41699   0.85783  -0.75385
O          O       0.57392   0.43931   0.97528  -1.00516
O          O       0.53884   0.27066   0.93100  -0.97319
O          O       0.60724   0.38997   0.86050  -0.90702
O          O       0.37764   0.93838   0.09613  -0.59784
O          O       0.15821   0.84900   0.25022  -0.70928
O          O       0.56436   0.93506   0.09383  -0.61515
O          O       0.69189   0.84921   0.25200  -0.71457
O          O       0.42219   0.86194   0.02510  -1.00830
O          O       0.46037   0.73136   0.07283  -0.97631
O          O       0.40739   0.79622   0.14373  -0.75458
O          O       0.26740   0.53617   0.07055  -0.97401
O          O       0.38804   0.60464   0.13989  -0.91108
O          O       0.26892   0.72722   0.07883  -0.97163
O          O       0.20279   0.58316   0.14351  -0.79001
O          O       0.83788   0.82959   0.29175  -0.60187
O          O       0.99528   0.83036   0.29167  -0.61669
