data_crystal

_audit_creation_method 'AiiDA-DDEC plugin'

_cell_length_a        10.94973
_cell_length_b        11.36016
_cell_length_c        12.60595

_cell_angle_alpha     104.82734
_cell_angle_beta     106.00725
_cell_angle_gamma     101.42776

_symmetry_space_group_name_Hall 'P 1'
_symmetry_space_group_name_H-M  'P 1'

loop_
_symmetry_equiv_pos_as_xyz
 'x,y,z'

loop_
_atom_site_label
_atom_site_type_symbol
_atom_site_fract_x
_atom_site_fract_y
_atom_site_fract_z
_atom_site_charge
La         La      0.41600   0.42823   0.82847   1.95950
La         La      0.58400   0.57176   0.17153   1.95962
H          H       0.10941   0.44453   0.85200   0.14858
H          H       0.46914   0.84240   0.80811   0.15943
H          H       0.89059   0.55547   0.14799   0.14861
H          H       0.53086   0.15760   0.19189   0.15933
C          C       0.06962   0.02506   0.51095   0.00189
C          C       0.07642   0.54111   0.12432   0.37961
C          C       0.93609   0.11558   0.56031   0.37178
C          C       0.06800   0.47105   0.92093  -0.12904
C          C       0.08220   0.14940   0.57341  -0.12390
C          C       0.51747   0.87366   0.99059  -0.11556
C          C       0.28958   0.52841   0.07324   0.62814
C          C       0.14311   0.51287   0.03593  -0.11656
C          C       0.19402   0.26516   0.63837   0.57999
C          C       0.53681   0.74420   0.98063   0.65037
C          C       0.48322   0.90771   0.89356  -0.13154
C          C       0.53224   0.96520   0.10541   0.38541
C          C       0.93041   0.97491   0.48905   0.00204
C          C       0.92358   0.45888   0.87568   0.37952
C          C       0.06394   0.88438   0.43972   0.37179
C          C       0.93200   0.52894   0.07907  -0.12907
C          C       0.91782   0.85057   0.42659  -0.12364
C          C       0.48253   0.12634   0.00940  -0.11545
C          C       0.71041   0.47159   0.92675   0.62794
C          C       0.85689   0.48712   0.96406  -0.11654
C          C       0.80600   0.73482   0.36162   0.58005
C          C       0.46319   0.25579   0.01937   0.65025
C          C       0.51677   0.09229   0.10644  -0.13149
C          C       0.46775   0.03480   0.89458   0.38539
O          O       0.13214   0.56971   0.23031  -0.30155
O          O       0.48992   0.66021   0.87908  -0.62581
O          O       0.59880   0.72634   0.07390  -0.63651
O          O       0.30839   0.26779   0.62999  -0.58272
O          O       0.17586   0.35816   0.70956  -0.60117
O          O       0.55119   0.93969   0.19686  -0.33037
O          O       0.34549   0.51779   0.99413  -0.72710
O          O       0.35728   0.55366   0.17958  -0.55567
O          O       0.85879   0.16646   0.58857  -0.28751
O          O       0.86786   0.43027   0.76968  -0.30135
O          O       0.51007   0.33979   0.12091  -0.62586
O          O       0.40120   0.27366   0.92609  -0.63634
O          O       0.69164   0.73221   0.37001  -0.58296
O          O       0.82414   0.64181   0.29043  -0.60108
O          O       0.44880   0.06031   0.80313  -0.33023
O          O       0.65451   0.48221   0.00586  -0.72712
O          O       0.64272   0.44634   0.82042  -0.55541
O          O       0.14130   0.83353   0.41153  -0.28773

