data_crystal

_audit_creation_method 'AiiDA-DDEC plugin'

_cell_length_a         9.43722
_cell_length_b         9.36524
_cell_length_c        12.51164

_cell_angle_alpha     95.33700
_cell_angle_beta     95.54227
_cell_angle_gamma     113.52134

_symmetry_space_group_name_Hall 'P 1'
_symmetry_space_group_name_H-M  'P 1'

loop_
_symmetry_equiv_pos_as_xyz
 'x,y,z'

loop_
_atom_site_label
_atom_site_type_symbol
_atom_site_fract_x
_atom_site_fract_y
_atom_site_fract_z
_atom_site_charge
U          U       0.52172   0.47746   0.74806   2.30825
U          U       0.47829   0.52255   0.25195   2.31083
H          H       0.54176   0.00175   0.80743   0.15221
H          H       0.00362   0.45855   0.69282   0.14816
H          H       0.45824  -0.00174   0.19257   0.14811
H          H       0.99637   0.54146   0.30718   0.14785
C          C       0.52779   0.73751   0.87781   0.55930
C          C       0.51135   0.13231   0.94923  -0.00394
C          C       0.51301   0.87169   0.94159  -0.02488
C          C       0.52392   0.00316   0.89202  -0.10883
C          C       0.51553   0.26396   0.88737   0.60269
C          C       0.26121   0.47041   0.62086   0.55727
C          C       0.87032   0.48958   0.55245  -0.00224
C          C       0.12856   0.48688   0.55707  -0.02388
C          C      -0.00060   0.47618   0.60811  -0.10461
C          C       0.74032   0.48428   0.61514   0.60376
C          C       0.47220   0.26249   0.12219   0.55844
C          C       0.48865   0.86770   0.05076  -0.00306
C          C       0.48699   0.12831   0.05841  -0.02275
C          C       0.47608  -0.00316   0.10798  -0.10568
C          C       0.48447   0.73605   0.11263   0.60209
C          C       0.73879   0.52959   0.37914   0.55600
C          C       0.12967   0.51042   0.44755  -0.00206
C          C       0.87144   0.51312   0.44293  -0.02575
C          C       0.00060   0.52383   0.39189  -0.10405
C          C       0.25967   0.51573   0.38485   0.60234
O          O       0.55019   0.74275   0.77768  -0.59486
O          O       0.64467   0.37893   0.87963  -0.59300
O          O       0.51674   0.61546   0.92077  -0.56177
O          O       0.38760   0.24940   0.83179  -0.58168
O          O       0.25505   0.44624   0.72005  -0.58501
O          O       0.62394   0.35386   0.61853  -0.59297
O          O       0.38181   0.48038   0.57726  -0.57378
O          O       0.75452   0.61096   0.67339  -0.58249
O          O       0.44979   0.25724   0.22231  -0.59840
O          O       0.35533   0.62107   0.12038  -0.59031
O          O       0.48324   0.38454   0.07923  -0.56265
O          O       0.61240   0.75061   0.16821  -0.58671
O          O       0.74495   0.55377   0.27995  -0.58089
O          O       0.37605   0.64614   0.38147  -0.59480
O          O       0.61820   0.51963   0.42275  -0.56632
O          O       0.24546   0.38904   0.32660  -0.57994

