data_crystal

_audit_creation_method 'AiiDA-DDEC plugin'

_cell_length_a         7.47308
_cell_length_b         7.16070
_cell_length_c        24.29305

_cell_angle_alpha     90.00000
_cell_angle_beta     90.00000
_cell_angle_gamma     92.83629

_symmetry_space_group_name_Hall 'P 1'
_symmetry_space_group_name_H-M  'P 1'

loop_
_symmetry_equiv_pos_as_xyz
 'x,y,z'

loop_
_atom_site_label
_atom_site_type_symbol
_atom_site_fract_x
_atom_site_fract_y
_atom_site_fract_z
_atom_site_charge
Mn         Mn      0.62003   0.14306   0.71177   1.56211
Mn         Mn      0.87998   0.35697   0.21176   0.98869
Mn         Mn      0.37998   0.85694   0.28824   0.96077
Mn         Mn      0.12003   0.64303   0.78824   1.03294
H          H       0.33086   0.15590   0.87418   0.15485
H          H       0.55835   0.16363   0.85084   0.15167
H          H       0.58274   0.94755   0.59352   0.09290
H          H       0.35413   0.89762   0.52037   0.11755
H          H       0.99252   0.19841   0.62253   0.12496
H          H       0.23585   0.23806   0.69063   0.09958
H          H       0.88465   0.10632   0.54064   0.11054
H          H       0.16915   0.34410   0.37418   0.15142
H          H       0.94163   0.33637   0.35084   0.15133
H          H       0.91723   0.55246   0.09352   0.09220
H          H       0.14587   0.60239   0.02036   0.11857
H          H       0.50751   0.30158   0.12253   0.12570
H          H       0.26416   0.26192   0.19064   0.09955
H          H       0.61535   0.39368   0.04064   0.11309
H          H       0.66915   0.84410   0.12582   0.15264
H          H       0.44162   0.83637   0.14917   0.15201
H          H       0.41724   0.05246   0.40648   0.09273
H          H       0.64587   0.10239   0.47964   0.11807
H          H       0.00751   0.80159   0.37747   0.12408
H          H       0.76416   0.76192   0.30936   0.09887
H          H       0.11535   0.89368   0.45936   0.10988
H          H       0.83086   0.65590   0.62583   0.15161
H          H       0.05835   0.66364   0.64917   0.15167
H          H       0.08275   0.44755   0.90648   0.09283
H          H       0.85413   0.39761   0.97964   0.11816
H          H       0.49252   0.69841   0.87748   0.12616
H          H       0.73585   0.73806   0.80937   0.10108
H          H       0.38465   0.60632   0.95936   0.11359
C          C       0.38726   0.32544   0.80207   0.67564
C          C       0.41751   0.15533   0.83818  -0.48358
C          C       0.38739   0.97501   0.80584   0.68305
C          C       0.45071   0.00376   0.59756   0.08089
C          C       0.32122   0.97558   0.55703  -0.20635
C          C       0.15052   0.04886   0.56396   0.12816
C          C       0.12207   0.14314   0.61383  -0.18861
C          C       0.25791   0.16500   0.65227   0.09340
C          C       0.00214   0.03905   0.52538  -0.16403
C          C       0.11272   0.17458   0.30207   0.66807
C          C       0.08251   0.34467   0.33817  -0.48082
C          C       0.11260   0.52498   0.30583   0.67160
C          C       0.04930   0.49624   0.09756   0.07695
C          C       0.17879   0.52443   0.05702  -0.21067
C          C       0.34948   0.45114   0.06396   0.11950
C          C       0.37794   0.35687   0.11382  -0.19754
C          C       0.24208   0.33500   0.15227   0.08036
C          C       0.49786   0.46095   0.02538  -0.17797
C          C       0.61274   0.67458   0.19792   0.66650
C          C       0.58250   0.84467   0.16183  -0.48041
C          C       0.61262   0.02498   0.19416   0.67130
C          C       0.54930  -0.00376   0.40245   0.07268
C          C       0.67878   0.02443   0.44298  -0.20868
C          C       0.84948   0.95115   0.43605   0.12742
C          C       0.87793   0.85687   0.38618  -0.19312
C          C       0.74209   0.83501   0.34774   0.08650
C          C      -0.00214   0.96095   0.47462  -0.16347
C          C       0.88726   0.82544   0.69794   0.67707
C          C       0.91750   0.65533   0.66183  -0.45501
C          C       0.88739   0.47500   0.69417   0.68056
C          C       0.95071   0.50376   0.90245   0.07827
C          C       0.82122   0.47558   0.94298  -0.20924
C          C       0.65052   0.54887   0.93604   0.12097
C          C       0.62207   0.64314   0.88618  -0.19516
C          C       0.75792   0.66500   0.84774   0.08345
C          C       0.50214   0.53905   0.97462  -0.17757
N          N       0.42242   0.09885   0.64491  -0.31596
N          N       0.07757   0.40114   0.14491  -0.27671
N          N       0.57756   0.90116   0.35509  -0.26617
N          N       0.92242   0.59886   0.85510  -0.27736
O          O       0.47242   0.34407   0.75700  -0.57343
O          O       0.27033   0.43480   0.81950  -0.54962
O          O       0.26486   0.85993   0.82332  -0.54487
O          O       0.48324   0.95009   0.76361  -0.58791
O          O       0.02758   0.15596   0.25700  -0.57937
O          O       0.22972   0.06535   0.31951  -0.57625
O          O       0.23517   0.63990   0.32333  -0.57009
O          O       0.01676   0.55023   0.26360  -0.58397
O          O       0.52756   0.65592   0.24301  -0.58159
O          O       0.72969   0.56519   0.18049  -0.57370
O          O       0.73515   0.14009   0.17668  -0.56726
O          O       0.51674   0.04993   0.23640  -0.58522
O          O       0.97241   0.84403   0.74300  -0.58084
O          O       0.77031   0.93463   0.68050  -0.56223
O          O       0.76486   0.36012   0.67669  -0.56216
O          O       0.98323   0.44979   0.73639  -0.58721

