data_crystal

_audit_creation_method 'AiiDA-DDEC plugin'

_cell_length_a         7.60140
_cell_length_b        13.23681
_cell_length_c        13.23767

_cell_angle_alpha     120.23297
_cell_angle_beta     89.99637
_cell_angle_gamma     90.00952

_symmetry_space_group_name_Hall 'P 1'
_symmetry_space_group_name_H-M  'P 1'

loop_
_symmetry_equiv_pos_as_xyz
 'x,y,z'

loop_
_atom_site_label
_atom_site_type_symbol
_atom_site_fract_x
_atom_site_fract_y
_atom_site_fract_z
_atom_site_charge
La         La      0.33422   0.33328   0.66632   1.95827
La         La      0.66576   0.66677   0.33358   1.95780
Ni         Ni      0.00005   0.49991  -0.00032   0.78079
Ni         Ni     -0.00014   0.50017   0.49929   0.78082
Ni         Ni      0.00005   0.00060   0.50005   0.78093
H          H       0.70289   0.55729   0.81693   0.12700
H          H       0.58902   0.61147   0.95091   0.13635
H          H       0.83313   0.68631   0.04951   0.25048
H          H       0.07463   0.72496   0.97490   0.12127
H          H       0.93135   0.68303   0.85382   0.11262
H          H       0.70254   0.25883   0.44184   0.12698
H          H       0.58878   0.33886   0.38836   0.13589
H          H       0.83292   0.36190   0.31323   0.24995
H          H       0.07523   0.24925   0.27506   0.12194
H          H       0.93210   0.16961   0.31613   0.11282
H          H       0.70216   0.18365   0.74091   0.12765
H          H       0.58864   0.04949   0.66062   0.13602
H          H       0.83297   0.95129   0.63693   0.25027
H          H       0.07481   0.02605   0.74990   0.12132
H          H       0.93176   0.14722   0.82997   0.11271
H          H       0.29709   0.44271   0.18305   0.12712
H          H       0.41095   0.38853   0.04910   0.13618
H          H       0.16688   0.31368   0.95050   0.25008
H          H       0.92536   0.27505   0.02511   0.12098
H          H       0.06864   0.31699   0.14616   0.11226
H          H       0.29751   0.74120   0.55816   0.12726
H          H       0.41123   0.66115   0.61165   0.13608
H          H       0.16691   0.63794   0.68657   0.25052
H          H       0.92479   0.75074   0.72493   0.12237
H          H       0.06788   0.83044   0.68390   0.11269
H          H       0.29782   0.81636   0.25910   0.12759
H          H       0.41136   0.95051   0.33938   0.13583
H          H       0.16711   0.04874   0.36299   0.25005
H          H       0.92517   0.97395   0.25009   0.12119
H          H       0.06824   0.85278   0.17003   0.11250
C          C       0.67960   0.43658   0.87838   0.64059
C          C       0.70480   0.56086   0.90179  -0.20741
C          C       0.99463   0.65282   0.90865  -0.18502
C          C       0.12218   0.55449   0.83290   0.59591
C          C       0.67986   0.44178   0.56308   0.64026
C          C       0.70473   0.34030   0.43865  -0.20655
C          C       0.99496   0.25509   0.34683  -0.18619
C          C       0.12204   0.27828   0.44543   0.59603
C          C       0.67918   0.12123   0.55805   0.64144
C          C       0.70435   0.09857   0.65928  -0.20828
C          C       0.99469   0.09222   0.74445  -0.18518
C          C       0.12210   0.16751   0.72163   0.59584
C          C       0.32035   0.56342   0.12160   0.64069
C          C       0.29516   0.43915   0.09820  -0.20743
C          C       0.00535   0.34720   0.09134  -0.18404
C          C       0.87781   0.44555   0.16708   0.59517
C          C       0.32028   0.55829   0.43689   0.63986
C          C       0.29530   0.65973   0.56135  -0.20725
C          C       0.00504   0.74495   0.65317  -0.18627
C          C       0.87791   0.72185   0.55461   0.59693
C          C       0.32073   0.87881   0.44198   0.64144
C          C       0.29564   0.90144   0.34073  -0.20812
C          C       0.00530   0.90779   0.25555  -0.18499
C          C       0.87792   0.83252   0.27842   0.59545
N          N       0.86687   0.61725   0.96820  -0.27940
N          N       0.86670   0.35020   0.38228  -0.27829
N          N       0.86655   0.03240   0.64921  -0.27853
N          N       0.13310   0.38276   0.03176  -0.27974
N          N       0.13325   0.64979   0.61758  -0.27800
N          N       0.13349   0.96766   0.35075  -0.27868
O          O       0.54137   0.38348   0.82259  -0.65393
O          O       0.79287   0.39146   0.91441  -0.53505
O          O       0.11484   0.46002   0.83850  -0.60837
O          O       0.23219   0.56638   0.76840  -0.55875
O          O       0.54242   0.43897   0.61655  -0.65426
O          O       0.79258   0.52367   0.60791  -0.53558
O          O       0.11436   0.37887   0.53997  -0.60764
O          O       0.23206   0.20186   0.43360  -0.55914
O          O       0.54082   0.17664   0.56052  -0.65455
O          O       0.79268   0.08493   0.47682  -0.53531
O          O       0.11437   0.16163   0.62142  -0.60778
O          O       0.23264   0.23194   0.79808  -0.55743
O          O       0.45858   0.61652   0.17742  -0.65422
O          O       0.20713   0.60853   0.08554  -0.53512
O          O       0.88517   0.53998   0.16144  -0.60761
O          O       0.76783   0.43365   0.23160  -0.55911
O          O       0.45775   0.56105   0.38348  -0.65332
O          O       0.20755   0.47639   0.39184  -0.53541
O          O       0.88556   0.62130   0.45994  -0.60817
O          O       0.76788   0.79821   0.56645  -0.55832
O          O       0.45908   0.82335   0.43948  -0.65501
O          O       0.20722   0.91522   0.52319  -0.53540
O          O       0.88567   0.83848   0.37864  -0.60725
O          O       0.76737   0.76807   0.20192  -0.55805

