data_crystal

_audit_creation_method 'AiiDA-DDEC plugin'

_cell_length_a         7.57597
_cell_length_b         8.95881
_cell_length_c        17.28196

_cell_angle_alpha     90.00000
_cell_angle_beta     90.00000
_cell_angle_gamma     96.58449

_symmetry_space_group_name_Hall 'P 1'
_symmetry_space_group_name_H-M  'P 1'

loop_
_symmetry_equiv_pos_as_xyz
 'x,y,z'

loop_
_atom_site_label
_atom_site_type_symbol
_atom_site_fract_x
_atom_site_fract_y
_atom_site_fract_z
_atom_site_charge
Zn         Zn      0.62062   0.72891   0.67475   0.99643
Zn         Zn      0.21830   0.52431   0.74355   1.03476
Zn         Zn      0.37939   0.27108   0.17475   0.99643
Zn         Zn      0.78170   0.47569   0.24355   1.03480
H          H       0.70368   0.82653   0.13269   0.14013
H          H       0.73437   0.91867   0.88743   0.14042
H          H       0.02472   0.45521   0.44902   0.13155
H          H       0.83926   0.19063   0.64789   0.14483
H          H       0.73447   0.01584   0.41803   0.13563
H          H       0.43527   0.51222   0.97040   0.14073
H          H       0.96414   0.20754   0.98975   0.39439
H          H       0.29633   0.17347   0.63269   0.14017
H          H       0.26563   0.08132   0.38743   0.14048
H          H       0.97529   0.54479   0.94902   0.13155
H          H       0.16074   0.80937   0.14789   0.14477
H          H       0.26553   0.98416   0.91803   0.13559
H          H       0.56473   0.48778   0.47040   0.14073
H          H       0.03587   0.79245   0.48975   0.39438
C          C       0.56194   0.65901   0.05795  -0.04282
C          C       0.66688   0.79473   0.07342  -0.07348
C          C       0.87561   0.25734   0.33893   0.54602
C          C       0.57880   0.71195   0.92053  -0.04227
C          C       0.68524   0.84745   0.93558  -0.06575
C          C       0.94136   0.33533   0.55359  -0.03024
C          C       0.77343   0.09092   0.53610  -0.04266
C          C       0.95286   0.35366   0.47322  -0.08347
C          C       0.84776   0.20523   0.58543  -0.06180
C          C       0.78983   0.10650   0.45589  -0.08437
C          C       0.68667   0.94608   0.56793   0.54717
C          C       0.72818   0.88945   0.01215  -0.05233
C          C       0.51580   0.61840   0.98167  -0.06485
C          C       0.87790   0.23862   0.42433  -0.03595
C          C       0.52581   0.66885   0.83952   0.61274
C          C       0.04259   0.44870   0.60601   0.55187
C          C       0.84366   0.03065   0.03173   0.55840
C          C       0.51034   0.55169   0.12176   0.60346
C          C       0.43806   0.34098   0.55795  -0.04283
C          C       0.33313   0.20527   0.57342  -0.07343
C          C       0.12440   0.74265   0.83893   0.54613
C          C       0.42121   0.28805   0.42053  -0.04221
C          C       0.31476   0.15255   0.43558  -0.06586
C          C       0.05864   0.66467   0.05359  -0.03007
C          C       0.22657   0.90908   0.03609  -0.04253
C          C       0.04715   0.64634   0.97322  -0.08341
C          C       0.15225   0.79477   0.08543  -0.06183
C          C       0.21017   0.89350   0.95589  -0.08436
C          C       0.31334   0.05391   0.06793   0.54715
C          C       0.27182   0.11055   0.51215  -0.05231
C          C       0.48420   0.38160   0.48167  -0.06504
C          C       0.12211   0.76138   0.92433  -0.03603
C          C       0.47419   0.33115   0.33952   0.61262
C          C       0.95741   0.55130   0.10600   0.55187
C          C       0.15634   0.96935   0.53173   0.55834
C          C       0.48967   0.44830   0.62176   0.60348
O          O       0.03509   0.41466   0.67911  -0.52897
O          O       0.39379   0.56880   0.83157  -0.54205
O          O       0.39106   0.44103   0.10631  -0.52678
O          O       0.78560   0.16269   0.29705  -0.41096
O          O       0.58613   0.57012   0.18716  -0.57105
O          O       0.61601   0.74039   0.78573  -0.54673
O          O       0.13253   0.56249   0.57839  -0.47696
O          O       0.89526   0.11667   0.96898  -0.46239
O          O       0.89142   0.06617   0.09753  -0.45564
O          O       0.67813   0.93358   0.64332  -0.52607
O          O       0.63183   0.84257   0.52268  -0.43657
O          O       0.95629   0.38005   0.30898  -0.51442
O          O       0.96491   0.58534   0.17910  -0.52906
O          O       0.60621   0.43120   0.33157  -0.54204
O          O       0.60894   0.55897   0.60631  -0.52677
O          O       0.21440   0.83730   0.79706  -0.41105
O          O       0.41387   0.42987   0.68716  -0.57102
O          O       0.38399   0.25961   0.28572  -0.54665
O          O       0.86748   0.43750   0.07838  -0.47691
O          O       0.10475   0.88332   0.46898  -0.46231
O          O       0.10858   0.93383   0.59754  -0.45560
O          O       0.32187   0.06642   0.14332  -0.52610
O          O       0.36817   0.15742   0.02268  -0.43654
O          O       0.04372   0.61995   0.80898  -0.51450

