data_crystal

_audit_creation_method 'AiiDA-DDEC plugin'

_cell_length_a        10.31455
_cell_length_b        10.50262
_cell_length_c        10.47152

_cell_angle_alpha     121.70230
_cell_angle_beta     90.60921
_cell_angle_gamma     92.80068

_symmetry_space_group_name_Hall 'P 1'
_symmetry_space_group_name_H-M  'P 1'

loop_
_symmetry_equiv_pos_as_xyz
 'x,y,z'

loop_
_atom_site_label
_atom_site_type_symbol
_atom_site_fract_x
_atom_site_fract_y
_atom_site_fract_z
_atom_site_charge
La         La      0.94564   0.65184   0.32522   1.90387
La         La      0.04854   0.34238   0.67251   1.93630
H          H       0.61295   0.31917   0.87058   0.08342
H          H       0.72348   0.55502   0.94750   0.10949
H          H       0.55642   0.53424   0.65699   0.07444
H          H       0.75343   0.31469   0.41769   0.09664
H          H       0.55910   0.12203   0.46711   0.07271
H          H       0.76359   0.07541   0.64604   0.09252
H          H       0.39540   0.67310   0.13086   0.09057
H          H       0.27381   0.43946   0.05429   0.10604
H          H       0.44287   0.45981   0.33726   0.07716
H          H       0.24239   0.68589   0.58538   0.09844
H          H       0.44205   0.87696   0.53363   0.07521
H          H       0.23862   0.92887   0.35014   0.09137
C          C       0.62451   0.40611   0.99181   0.27021
C          C       0.86019   0.41111   0.96358   0.57138
C          C       0.74237   0.51849   0.02873   0.03029
C          C       0.52251   0.56306   0.57441   0.22455
C          C       0.87265   0.53529   0.56387   0.54347
C          C       0.79750   0.41359   0.41957   0.20487
C          C       0.51710   0.00967   0.43560   0.23000
C          C       0.88211   0.01088   0.44150   0.54633
C          C       0.80095   0.97774   0.54460   0.20155
C          C       0.37743   0.59622   0.00826   0.23710
C          C       0.14026   0.60704   0.04250   0.59046
C          C       0.26962   0.47042   0.96816   0.09660
C          C       0.47374   0.43159   0.42111   0.22594
C          C       0.12745   0.46393   0.43732   0.53981
C          C       0.20127   0.58519   0.58236   0.20425
C          C       0.48412   0.98927   0.56513   0.22983
C          C       0.12230   0.98719   0.55583   0.54194
C          C       0.20107   0.02400   0.45307   0.20348
O          O       0.54683   0.41476   0.08177  -0.27618
O          O       0.94459   0.42585   0.05914  -0.56257
O          O       0.85893   0.33030   0.82174  -0.58114
O          O       0.76493   0.63020   0.16996  -0.53313
O          O       0.52193   0.69210   0.60367  -0.28950
O          O       0.91982   0.64736   0.56147  -0.56305
O          O       0.88733   0.50828   0.66739  -0.58830
O          O       0.78983   0.42612   0.30964  -0.33365
O          O       0.49439   0.90832   0.30512  -0.27773
O          O       0.93966   0.90182   0.33889  -0.56101
O          O       0.88847   0.14574   0.47430  -0.59523
O          O       0.78020   0.84871   0.51521  -0.32378
O          O       0.44251   0.60120   0.91532  -0.23542
O          O       0.07044   0.59177   0.93971  -0.43844
O          O       0.15135   0.67562   0.18060  -0.45571
O          O       0.24046   0.36822   0.83211  -0.43475
O          O       0.47123   0.30312   0.39383  -0.29182
O          O       0.07640   0.35346   0.44040  -0.57262
O          O       0.11717   0.49074   0.33330  -0.58465
O          O       0.20994   0.57092   0.69106  -0.34626
O          O       0.50623   0.09096   0.69549  -0.27758
O          O       0.06611   0.09646   0.66062  -0.56877
O          O       0.11776   0.85196   0.52055  -0.58369
O          O       0.22027   0.15411   0.48552  -0.32529

