data_crystal

_audit_creation_method 'AiiDA-DDEC plugin'

_cell_length_a        11.82033
_cell_length_b        15.65686
_cell_length_c        15.88480

_cell_angle_alpha     90.00000
_cell_angle_beta     90.29410
_cell_angle_gamma     90.00000

_symmetry_space_group_name_Hall 'P 1'
_symmetry_space_group_name_H-M  'P 1'

loop_
_symmetry_equiv_pos_as_xyz
 'x,y,z'

loop_
_atom_site_label
_atom_site_type_symbol
_atom_site_fract_x
_atom_site_fract_y
_atom_site_fract_z
_atom_site_charge
Zn         Zn      0.51091   0.50000   0.58589   0.81735
Zn         Zn      0.48910   0.50000   0.41411   0.81736
H          H       0.80096   0.32808   0.61171   0.11272
H          H       0.34750   0.50000   0.72524   0.11964
H          H       0.19670   0.13371   0.63503   0.10808
H          H       0.34862   0.50000   0.88493   0.13248
H          H       0.79424   0.00000   0.47269   0.11894
H          H       0.31743   0.73493   0.63571   0.11430
H          H       0.68257   0.26507   0.36429   0.11464
H          H       0.80330   0.13371   0.36497   0.10824
H          H       0.80096   0.67192   0.61171   0.11273
H          H       0.80330   0.86629   0.36497   0.10817
H          H       0.19904   0.67192   0.38828   0.11281
H          H       0.28713   0.50000   0.12491   0.13864
H          H       0.71288   0.50000   0.87508   0.13866
H          H       0.68257   0.73493   0.36429   0.11458
H          H       0.65138   0.50000   0.11507   0.13269
H          H       0.19670   0.86629   0.63503   0.10807
H          H       0.30331   0.50000   0.28465   0.12143
H          H       0.07163   0.20087   0.38922   0.10926
H          H       0.69669   0.50000   0.71534   0.12155
H          H       0.92837   0.20087   0.61078   0.10919
H          H       0.07163   0.79913   0.38922   0.10925
H          H       0.65250   0.50000   0.27476   0.11967
H          H       0.19904   0.32808   0.38828   0.11280
H          H       0.92837   0.79913   0.61078   0.10922
H          H       0.20576   0.00000   0.52731   0.11903
H          H       0.31743   0.26507   0.63571   0.11432
C          C       0.36884   0.50000   0.15666  -0.18781
C          C       0.12627   0.84170   0.51196   0.07755
C          C       0.73429   0.30460   0.48791  -0.03839
C          C       0.87433   0.78521   0.55687  -0.13913
C          C       0.57425   0.50000   0.23829   0.10479
C          C       0.80400   0.71392   0.55735  -0.09243
C          C       0.80382   0.82309   0.41865  -0.15196
C          C       0.88548   0.00000   0.48231  -0.18544
C          C       0.37737   0.50000   0.24415   0.10122
C          C       0.73623   0.74999   0.41801  -0.09657
C          C       0.94129   0.92146   0.49128   0.02062
C          C       0.12627   0.15829   0.51196   0.07746
C          C       0.12567   0.78521   0.44313  -0.13907
C          C       0.19618   0.82309   0.58135  -0.15193
C          C       0.42575   0.50000   0.76171   0.10484
C          C       0.73623   0.25001   0.41801  -0.09663
C          C       0.05871   0.07853   0.50872   0.02072
C          C       0.11452   0.00000   0.51768  -0.18556
C          C       0.87373   0.84170   0.48804   0.07761
C          C       0.05871   0.92146   0.50872   0.02061
C          C       0.19618   0.17691   0.58135  -0.15187
C          C       0.53157   0.50000   0.89086   0.19111
C          C       0.57341   0.50000   0.15096  -0.18610
C          C       0.87433   0.21478   0.55687  -0.13905
C          C       0.63116   0.50000   0.84333  -0.18790
C          C       0.42660   0.50000   0.84903  -0.18598
C          C       0.80382   0.17691   0.41865  -0.15200
C          C       0.12567   0.21478   0.44313  -0.13903
C          C       0.94129   0.07853   0.49128   0.02063
C          C       0.19601   0.28608   0.44264  -0.09259
C          C       0.26377   0.25001   0.58199  -0.09624
C          C       0.87373   0.15829   0.48804   0.07760
C          C       0.65466   0.62083   0.49086   0.58722
C          C       0.26377   0.74999   0.58199  -0.09616
C          C       0.19601   0.71392   0.44264  -0.09247
C          C       0.73429   0.69539   0.48791  -0.03841
C          C       0.26572   0.30460   0.51208  -0.03834
C          C       0.26572   0.69539   0.51208  -0.03845
C          C       0.65466   0.37917   0.49086   0.58722
C          C       0.80400   0.28608   0.55735  -0.09250
C          C       0.46843   0.50000   0.10914   0.19119
C          C       0.62263   0.50000   0.75585   0.10131
C          C       0.34534   0.62083   0.50913   0.58726
C          C       0.34534   0.37917   0.50913   0.58728
N          N       0.52190   0.50000   0.71605  -0.17356
N          N       0.45368   0.50000   0.02025  -0.11070
N          N       0.54632   0.50000   0.97975  -0.11058
N          N       0.47810   0.50000   0.28395  -0.17357
O          O       0.38813   0.40544   0.57857  -0.55895
O          O       0.63397   0.40973   0.56363  -0.55406
O          O       0.38813   0.59456   0.57857  -0.55893
O          O       0.61188   0.40544   0.42143  -0.55882
O          O       0.63397   0.59027   0.56363  -0.55403
O          O       0.36603   0.59027   0.43637  -0.55399
O          O       0.61188   0.59456   0.42143  -0.55885
O          O       0.36603   0.40973   0.43637  -0.55402

