data_crystal

_audit_creation_method 'AiiDA-DDEC plugin'

_cell_length_a         8.83858
_cell_length_b         8.85646
_cell_length_c        16.04034

_cell_angle_alpha     100.16140
_cell_angle_beta     99.59411
_cell_angle_gamma     112.13783

_symmetry_space_group_name_Hall 'P 1'
_symmetry_space_group_name_H-M  'P 1'

loop_
_symmetry_equiv_pos_as_xyz
 'x,y,z'

loop_
_atom_site_label
_atom_site_type_symbol
_atom_site_fract_x
_atom_site_fract_y
_atom_site_fract_z
_atom_site_charge
La         La      0.73050   0.97898   0.45660   1.97467
La         La      0.52138   0.77186   0.04277   1.97338
La         La      0.26951   0.02103   0.54340   1.97449
La         La      0.47863   0.22814   0.95723   1.97345
H          H       0.90104   0.44228   0.56539   0.14122
H          H       0.66447   0.62440   0.56382   0.14293
H          H       0.06015   0.59980   0.93526   0.14215
H          H       0.87574   0.83420   0.93503   0.14253
H          H       0.09897   0.55773   0.43461   0.14107
H          H       0.33554   0.37560   0.43618   0.14310
H          H       0.93986   0.40020   0.06474   0.14211
H          H       0.12427   0.16580   0.06497   0.14266
C          C       0.63226   0.30694   0.56077   0.64715
C          C       0.78513   0.45846   0.56602  -0.15631
C          C       0.93095   0.75345   0.56145   0.64514
C          C       0.78112   0.60840   0.56582  -0.15690
C          C       0.19301   0.86814   0.93919   0.64682
C          C       0.04243   0.71457   0.93409  -0.15603
C          C       0.74586   0.56970   0.93878   0.64873
C          C       0.89188   0.71805   0.93395  -0.15901
C          C       0.36775   0.69306   0.43923   0.64695
C          C       0.21488   0.54154   0.43398  -0.15634
C          C       0.06906   0.24655   0.43855   0.64518
C          C       0.21889   0.39160   0.43418  -0.15685
C          C       0.80699   0.13186   0.06082   0.64650
C          C       0.95758   0.28543   0.06591  -0.15587
C          C       0.25415   0.43030   0.06122   0.64852
C          C       0.10813   0.28195   0.06606  -0.15908
C          C       0.57230   0.92801   0.25005   0.48533
C          C       0.67796   0.82124   0.24936   0.49398
C          C       0.42771   0.07199   0.74995   0.48525
C          C       0.32205   0.17876   0.75064   0.49409
O          O       0.56058   0.99374   0.32426  -0.56265
O          O       0.64484   0.16401   0.54875  -0.69957
O          O       0.49442   0.31637   0.56633  -0.59923
O          O       0.76319   0.82829   0.32300  -0.56785
O          O       0.90888   0.88348   0.54574  -0.70322
O          O       0.07479   0.74991   0.57084  -0.59560
O          O       0.50660   0.94005   0.17638  -0.56363
O          O       0.33712   0.85778   0.95177  -0.70097
O          O       0.18213   0.00483   0.93329  -0.59784
O          O       0.66998   0.73583   0.17519  -0.56601
O          O       0.61408   0.59261   0.95127  -0.70015
O          O       0.75052   0.42685   0.93278  -0.59904
O          O       0.43943   0.00626   0.67575  -0.56253
O          O       0.35517   0.83599   0.45125  -0.69951
O          O       0.50559   0.68363   0.43367  -0.59903
O          O       0.23682   0.17171   0.67700  -0.56810
O          O       0.09113   0.11652   0.45426  -0.70315
O          O       0.92522   0.25010   0.42916  -0.59588
O          O       0.49341   0.05995   0.82363  -0.56343
O          O       0.66289   0.14222   0.04823  -0.70113
O          O       0.81788   0.99517   0.06671  -0.59745
O          O       0.33003   0.26417   0.82481  -0.56609
O          O       0.38593   0.40739   0.04873  -0.69982
O          O       0.24949   0.57315   0.06722  -0.59911

