data_crystal

_audit_creation_method 'AiiDA-DDEC plugin'

_cell_length_a         9.17590
_cell_length_b        10.72442
_cell_length_c        14.50162

_cell_angle_alpha     102.53783
_cell_angle_beta     98.34172
_cell_angle_gamma     104.84878

_symmetry_space_group_name_Hall 'P 1'
_symmetry_space_group_name_H-M  'P 1'

loop_
_symmetry_equiv_pos_as_xyz
 'x,y,z'

loop_
_atom_site_label
_atom_site_type_symbol
_atom_site_fract_x
_atom_site_fract_y
_atom_site_fract_z
_atom_site_charge
U          U       0.13345   0.30001   0.40653   1.91606
U          U       0.88433   0.80896   0.01508   1.83443
U          U       0.86393   0.69814   0.59410   1.91016
U          U       0.11515   0.19169   0.98482   1.83332
H          H       0.14850   0.86697   0.15258   0.08891
H          H       0.07180   0.49938   0.23891   0.11243
H          H       0.04070   0.85643   0.42602   0.11376
H          H       0.16396   0.64733   0.04917   0.29308
H          H       0.14658   0.51583   0.09600   0.29056
H          H       0.76688   0.85676   0.31684   0.11691
H          H       0.44420   0.55529   0.40033   0.09029
H          H       0.43417   0.52699   0.09592   0.12595
H          H       0.60636   0.80198   0.50408   0.30992
H          H       0.77035   0.86403   0.47377   0.31482
H          H       0.09263   0.91816   0.87700   0.40257
H          H       0.92585   0.92771   0.81298   0.38119
H          H       0.85089   0.13402   0.84668   0.08967
H          H       0.92450   0.50073   0.76154   0.11078
H          H       0.95790   0.14524   0.57306   0.11416
H          H       0.83520   0.35098   0.95081   0.29335
H          H       0.85379   0.48417   0.90549   0.29079
H          H       0.23377   0.13925   0.68281   0.11724
H          H       0.55715   0.44193   0.59996   0.08916
H          H       0.56244   0.47197   0.90312   0.12773
H          H       0.39480   0.19794   0.49862   0.31051
H          H       0.23225   0.13339   0.52720   0.31427
H          H       0.90531   0.08193   0.12217   0.40290
H          H       0.07741   0.07754   0.18901   0.38118
C          C       0.06333   0.00426   0.31369   0.48440
C          C       0.05744   0.86856   0.28176  -0.03394
C          C       0.07524   0.80037   0.18742  -0.45208
C          C       0.08268   0.66578   0.17585   0.32605
C          C       0.06639   0.60152   0.24995  -0.23501
C          C       0.05738   0.67290   0.34246  -0.05040
C          C       0.04741   0.80193   0.35559  -0.12658
C          C       0.07977   0.62227   0.42871   0.63232
C          C       0.66402   0.75335   0.12245   0.53415
C          C       0.60502   0.69725   0.19797  -0.03547
C          C       0.67037   0.76524   0.29658  -0.24445
C          C       0.61467   0.70888   0.36718   0.24926
C          C       0.48983   0.59256   0.34349  -0.25055
C          C       0.42042   0.52473   0.24345  -0.06360
C          C       0.48159   0.57902   0.17188  -0.11557
C          C       0.29232   0.40598   0.21940   0.55021
C          C       0.93614   0.99542   0.68590   0.49053
C          C       0.94199   0.13191   0.71753  -0.03263
C          C       0.92477   0.19996   0.81199  -0.45258
C          C       0.91586   0.33429   0.82406   0.32716
C          C       0.93232   0.39925   0.75046  -0.23941
C          C       0.94274   0.32845   0.65816  -0.05417
C          C       0.95277   0.19890   0.64410  -0.12509
C          C       0.91927   0.37787   0.57154   0.63341
C          C       0.33665   0.24716   0.87753   0.53798
C          C       0.39489   0.29975   0.80076  -0.03641
C          C       0.32968   0.23240   0.70282  -0.24424
C          C       0.38397   0.28923   0.63256   0.24778
C          C       0.51103   0.40524   0.65652  -0.25165
C          C       0.58066   0.47240   0.75617  -0.06078
C          C       0.51978   0.41855   0.82771  -0.11642
C          C       0.70670   0.59264   0.78150   0.54878
N          N       0.10515   0.59467   0.08923  -0.63160
N          N       0.68683   0.77544   0.46823  -0.69379
N          N       0.89425   0.40460   0.91129  -0.63374
N          N       0.31191   0.22389   0.53171  -0.68910
O          O       0.09725   0.09868   0.26230  -0.57968
O          O       0.05077   0.06204   0.39861  -0.61767
O          O       0.05657   0.68743   0.50956  -0.68661
O          O       0.12679   0.51927   0.42475  -0.66647
O          O       0.64964   0.67624   0.03726  -0.60699
O          O       0.74764   0.87748   0.14025  -0.62507
O          O       0.20994   0.34800   0.12922  -0.72396
O          O       0.25190   0.35397   0.28913  -0.71952
O          O       0.02288   0.94322   0.91699  -0.99996
O          O       0.90432   0.90331   0.73865  -0.57853
O          O       0.94767   0.93752   0.60105  -0.61710
O          O       0.94382   0.31189   0.49147  -0.68967
O          O       0.87038   0.47946   0.57361  -0.66709
O          O       0.35151   0.32496   0.96192  -0.60514
O          O       0.24974   0.12338   0.86021  -0.63580
O          O       0.78801   0.64986   0.87185  -0.71727
O          O       0.74507   0.64792   0.71258  -0.72233
O          O       0.97119   0.05609   0.07972  -1.01001

