data_crystal

_audit_creation_method 'AiiDA-DDEC plugin'

_cell_length_a         9.57990
_cell_length_b        10.67463
_cell_length_c        10.88639

_cell_angle_alpha     63.46328
_cell_angle_beta     66.65732
_cell_angle_gamma     68.00922

_symmetry_space_group_name_Hall 'P 1'
_symmetry_space_group_name_H-M  'P 1'

loop_
_symmetry_equiv_pos_as_xyz
 'x,y,z'

loop_
_atom_site_label
_atom_site_type_symbol
_atom_site_fract_x
_atom_site_fract_y
_atom_site_fract_z
_atom_site_charge
Nd         Nd      0.70682   0.00151   0.50142   2.05753
Nd         Nd      0.29318  -0.00152   0.49858   2.05747
H          H       0.49129   0.39349   0.67129   0.12544
H          H       0.33067   0.64294   0.65865   0.10712
H          H       0.96716   0.56216   0.58786   0.11327
H          H       0.12744   0.31347   0.59886   0.10839
H          H       0.28417   0.37403   0.11313   0.12354
H          H       0.73635   0.38964   0.08930   0.12315
H          H       0.50869   0.60652   0.32871   0.12539
H          H       0.66930   0.35708   0.34134   0.10713
H          H       0.03282   0.43784   0.41212   0.11338
H          H       0.87255   0.68654   0.40114   0.10837
H          H       0.71582   0.62597   0.88686   0.12356
H          H       0.26364   0.61036   0.91070   0.12305
C          C       0.42863   0.20084   0.61578   0.62185
C          C       0.32135   0.33913   0.63224  -0.03090
C          C       0.37615   0.43086   0.65374  -0.08428
C          C       0.28703   0.57032   0.64566  -0.09642
C          C       0.14129   0.61927   0.61713  -0.03695
C          C       0.08220   0.52416   0.60545  -0.09514
C          C       0.17156   0.38548   0.61215  -0.09571
C          C       0.05150   0.77363   0.59033   0.66088
C          C       0.52025   0.22781   0.23736   0.64179
C          C       0.51146   0.36733   0.11349  -0.03492
C          C       0.37805   0.42972   0.06277  -0.09046
C          C       0.63326   0.43860   0.04990  -0.09694
C          C       0.57133   0.79916   0.38420   0.62195
C          C       0.67864   0.66087   0.36777  -0.03098
C          C       0.62383   0.56913   0.34626  -0.08433
C          C       0.71297   0.42969   0.35434  -0.09613
C          C       0.85869   0.38074   0.38286  -0.03705
C          C       0.91779   0.47585   0.39454  -0.09570
C          C       0.82842   0.61453   0.38785  -0.09546
C          C       0.94858   0.22635   0.40966   0.66146
C          C       0.47972   0.77219   0.76262   0.64178
C          C       0.48853   0.63267   0.88651  -0.03496
C          C       0.62194   0.57027   0.93722  -0.09034
C          C       0.36673   0.56140   0.95009  -0.09675
O          O       0.56595   0.16387   0.63038  -0.60576
O          O       0.38715   0.12619   0.57598  -0.74319
O          O       0.92542   0.81123   0.55478  -0.67545
O          O       0.10412   0.86021   0.60116  -0.67444
O          O       0.63362   0.18341   0.29239  -0.66621
O          O       0.41244   0.16245   0.28289  -0.65632
O          O       0.43404   0.83615   0.36960  -0.60563
O          O       0.61282   0.87382   0.42401  -0.74345
O          O       0.07450   0.18878   0.44521  -0.67475
O          O       0.89587   0.13978   0.39882  -0.67529
O          O       0.36638   0.81660   0.70762  -0.66593
O          O       0.58756   0.83756   0.71709  -0.65665

