data_crystal

_audit_creation_method 'AiiDA-DDEC plugin'

_cell_length_a         9.91747
_cell_length_b        10.58350
_cell_length_c        12.56868

_cell_angle_alpha     111.55348
_cell_angle_beta     101.36126
_cell_angle_gamma     94.05169

_symmetry_space_group_name_Hall 'P 1'
_symmetry_space_group_name_H-M  'P 1'

loop_
_symmetry_equiv_pos_as_xyz
 'x,y,z'

loop_
_atom_site_label
_atom_site_type_symbol
_atom_site_fract_x
_atom_site_fract_y
_atom_site_fract_z
_atom_site_charge
Cd         Cd      0.45235   0.16851   0.24811   1.04825
Cd         Cd      0.54765   0.83149   0.75189   1.04835
Cd         Cd      0.50000   0.50000   0.50000   1.14843
H          H       0.87949   0.44450   0.64077   0.14463
H          H       0.29495   0.37385   0.59968   0.14167
H          H       0.94530   0.21905   0.29684   0.14126
H          H       0.29999   0.72545   0.93175   0.15271
H          H       0.46503   0.72185   0.27378   0.14573
H          H       0.31091   0.33737   0.97707   0.15254
H          H       0.12051   0.55550   0.35923   0.14460
H          H       0.70505   0.62615   0.40032   0.14180
H          H       0.05469   0.78095   0.70316   0.14120
H          H       0.70000   0.27455   0.06825   0.15280
H          H       0.53497   0.27814   0.72622   0.14583
H          H       0.68909   0.66262   0.02293   0.15240
C          C       0.73984   0.31666   0.41665   0.58010
C          C       0.89525   0.33100   0.46345  -0.02224
C          C       0.94871   0.40150   0.58432  -0.12681
C          C       0.09109   0.41210   0.63199   0.09319
C          C       0.18376   0.35976   0.56155  -0.13853
C          C       0.13007   0.29390   0.44029  -0.00587
C          C       0.98584   0.27622   0.39123  -0.04659
C          C       0.22652   0.23841   0.36175   0.57000
C          C       0.29716   0.52285   0.94230   0.08563
C          C       0.32352   0.66730   0.98688  -0.12182
C          C       0.38575   0.73783   0.10655  -0.00221
C          C       0.41993   0.66568   0.17988  -0.04764
C          C       0.39346   0.52117   0.13303  -0.02313
C          C       0.33229   0.44912   0.01368  -0.13531
C          C       0.43017   0.44211   0.21037   0.57604
C          C       0.41387   0.89183   0.15620   0.54239
C          C       0.26015   0.68333   0.58335   0.58017
C          C       0.10474   0.66900   0.53655  -0.02216
C          C       0.05129   0.59849   0.41568  -0.12684
C          C       0.90890   0.58790   0.36801   0.09300
C          C       0.81623   0.64023   0.43845  -0.13853
C          C       0.86992   0.70610   0.55971  -0.00585
C          C       0.01415   0.72378   0.60877  -0.04664
C          C       0.77347   0.76158   0.63825   0.57002
C          C       0.70283   0.47715   0.05769   0.08586
C          C       0.67647   0.33269   0.01311  -0.12191
C          C       0.61424   0.26216   0.89345  -0.00224
C          C       0.58007   0.33431   0.82012  -0.04770
C          C       0.60654   0.47882   0.86697  -0.02303
C          C       0.66771   0.55088   0.98632  -0.13550
C          C       0.56982   0.55789   0.78963   0.57614
C          C       0.58612   0.10816   0.84380   0.54232
N          N       0.13688   0.48831   0.75582   0.28764
N          N       0.24156   0.44054   0.82036   0.28514
N          N       0.86311   0.51169   0.24418   0.28777
N          N       0.75843   0.55945   0.17964   0.28506
O          O       0.68910   0.24972   0.30672  -0.55524
O          O       0.67384   0.37361   0.49413  -0.58248
O          O       0.17940   0.14899   0.26077  -0.47699
O          O       0.35911   0.28618   0.40592  -0.61187
O          O       0.39435   0.31244   0.15912  -0.53541
O          O       0.49422   0.51185   0.31683  -0.58551
O          O       0.38904   0.95352   0.08610  -0.50518
O          O       0.46054   0.95583   0.26728  -0.51032
O          O       0.08005   0.58541   0.80957  -0.24655
O          O       0.27235   0.32425   0.77218  -0.24128
O          O       0.31090   0.75028   0.69327  -0.55537
O          O       0.32615   0.62638   0.50586  -0.58260
O          O       0.82060   0.85101   0.73922  -0.47720
O          O       0.64088   0.71382   0.59408  -0.61171
O          O       0.60564   0.68756   0.84088  -0.53568
O          O       0.50578   0.48815   0.68317  -0.58541
O          O       0.61096   0.04648   0.91390  -0.50510
O          O       0.53945   0.04416   0.73272  -0.51024
O          O       0.91994   0.41458   0.19043  -0.24659
O          O       0.72764   0.67574   0.22782  -0.24138

