data_crystal

_audit_creation_method 'AiiDA-DDEC plugin'

_cell_length_a         8.68784
_cell_length_b        10.96682
_cell_length_c        12.46212

_cell_angle_alpha     68.05925
_cell_angle_beta     86.64319
_cell_angle_gamma     79.29538

_symmetry_space_group_name_Hall 'P 1'
_symmetry_space_group_name_H-M  'P 1'

loop_
_symmetry_equiv_pos_as_xyz
 'x,y,z'

loop_
_atom_site_label
_atom_site_type_symbol
_atom_site_fract_x
_atom_site_fract_y
_atom_site_fract_z
_atom_site_charge
Tb         Tb      0.70849   0.97771   0.45382   2.12372
Tb         Tb      0.29152   0.02272   0.54635   2.12700
H          H       0.22425   0.64079   0.76621   0.12270
H          H       0.99583   0.29944   0.85176   0.11361
H          H       0.85498   0.64866   0.54742   0.11597
H          H       0.97050   0.22104   0.68739   0.12059
H          H       0.78354   0.10078   0.64344   0.10473
H          H       0.40798   0.42882   0.61393   0.11640
H          H       0.59852   0.55385   0.65161   0.12066
H          H       0.99133   0.33294   0.02435   0.11028
H          H       0.11947   0.20935   0.21581   0.11070
H          H       0.56081   0.30921   0.07150   0.11460
H          H       0.43337   0.43601   0.87868   0.10947
H          H       0.77638   0.35897   0.23407   0.12288
H          H       0.00399   0.70071   0.14821   0.11365
H          H       0.14567   0.35172   0.45264   0.11581
H          H       0.02979   0.77970   0.31266   0.12132
H          H       0.21653   0.89972   0.35687   0.10526
H          H       0.59220   0.57185   0.38637   0.11606
H          H       0.40202   0.44687   0.34838   0.12059
H          H       0.00892   0.66667   0.97602   0.11031
H          H       0.88087   0.79039   0.78441   0.11088
H          H       0.43936   0.69072   0.92875   0.11442
H          H       0.56687   0.56371   0.12160   0.10912
C          C       0.05637   0.79565   0.57476   0.65996
C          C       0.04299   0.65580   0.64942  -0.04519
C          C       0.13979   0.58891   0.74798  -0.13300
C          C       0.12051   0.46132   0.82411   0.06649
C          C       0.00930   0.40005   0.79528  -0.15974
C          C       0.91278   0.46551   0.69680   0.06793
C          C       0.92882   0.59518   0.62419  -0.12600
C          C       0.79712   0.39548   0.67241   0.08131
C          C       0.84732   0.26606   0.67255  -0.13219
C          C       0.74250   0.19898   0.64701  -0.07485
C          C       0.58413   0.25774   0.62430  -0.04730
C          C       0.53126   0.38439   0.62984  -0.08284
C          C       0.63795   0.45388   0.65094  -0.14100
C          C       0.47853   0.18632   0.59016   0.62691
C          C       0.20344   0.39212   0.93698   0.07535
C          C       0.11649   0.32694   0.03358  -0.14165
C          C       0.18734   0.25803   0.14136  -0.08527
C          C       0.34804   0.25020   0.15647  -0.05192
C          C       0.43601   0.31503   0.06083  -0.08659
C          C       0.36400   0.38702   0.95261  -0.14124
C          C       0.41678   0.17207   0.27453   0.65100
C          C       0.94431   0.20435   0.42552   0.66218
C          C       0.95757   0.34418   0.35074  -0.04775
C          C       0.86065   0.41106   0.25223  -0.13144
C          C       0.87985   0.53865   0.17605   0.06578
C          C       0.99096   0.60005   0.20483  -0.15970
C          C       0.08763   0.53474   0.30329   0.06752
C          C       0.07166   0.40500   0.37592  -0.12508
C          C       0.20319   0.60501   0.32772   0.08301
C          C       0.15290   0.73448   0.32755  -0.13298
C          C       0.25754   0.80159   0.35324  -0.07396
C          C       0.41583   0.74298   0.37604  -0.04859
C          C       0.46897   0.61641   0.37039  -0.08140
C          C       0.36249   0.54683   0.34916  -0.14171
C          C       0.52132   0.81426   0.41026   0.62874
C          C       0.79684   0.60772   0.06324   0.07477
C          C       0.88377   0.67282   0.96661  -0.14138
C          C       0.81286   0.74180   0.85885  -0.08451
C          C       0.65202   0.74978   0.84394  -0.05189
C          C       0.56416   0.68476   0.93960  -0.08608
C          C       0.63631   0.61269   0.04776  -0.14025
C          C       0.58311   0.82811   0.72582   0.65000
O          O       0.95794   0.86100   0.49168  -0.71145
O          O       0.16690   0.84374   0.59824  -0.69001
O          O       0.33175   0.20167   0.60749  -0.61527
O          O       0.54007   0.10420   0.54006  -0.78885
O          O       0.31900   0.15492   0.35806  -0.69697
O          O       0.56372   0.12679   0.28663  -0.66575
O          O       0.04324   0.13920   0.50837  -0.71198
O          O       0.83380   0.15592   0.40233  -0.69051
O          O       0.66790   0.79908   0.39271  -0.61555
O          O       0.46036   0.89633   0.46060  -0.79020
O          O       0.68120   0.84479   0.64236  -0.69596
O          O       0.43625   0.87356   0.71364  -0.66372

