data_crystal

_audit_creation_method 'AiiDA-DDEC plugin'

_cell_length_a         8.71819
_cell_length_b        10.51888
_cell_length_c        11.13859

_cell_angle_alpha     100.32209
_cell_angle_beta     116.05433
_cell_angle_gamma     109.36165

_symmetry_space_group_name_Hall 'P 1'
_symmetry_space_group_name_H-M  'P 1'

loop_
_symmetry_equiv_pos_as_xyz
 'x,y,z'

loop_
_atom_site_label
_atom_site_type_symbol
_atom_site_fract_x
_atom_site_fract_y
_atom_site_fract_z
_atom_site_charge
Y          Y       0.29354   0.00456   0.00907   1.86469
Y          Y       0.70645   0.99544   0.99093   1.86463
H          H       0.82852   0.36775   0.07681   0.11398
H          H       0.02106   0.61942   0.10274   0.12108
H          H       0.50450   0.60789   0.78127   0.10443
H          H       0.30905   0.35760   0.75933   0.12360
H          H       0.88164   0.61251   0.63289   0.12207
H          H       0.33460   0.64136   0.56132   0.12407
H          H       0.17148   0.63225   0.92318   0.11409
H          H       0.97893   0.38058   0.89726   0.12126
H          H       0.49549   0.39210   0.21872   0.10434
H          H       0.69094   0.64240   0.24066   0.12340
H          H       0.11836   0.38749   0.36710   0.12205
H          H       0.66539   0.35864   0.43867   0.12419
C          C       0.55850   0.34683   0.91396  -0.03099
C          C       0.75903   0.42073   0.01219  -0.09383
C          C       0.86608   0.56041   0.02631  -0.08617
C          C       0.77449   0.62668   0.94108  -0.03783
C          C       0.57339   0.55355   0.84451  -0.10019
C          C       0.46520   0.41444   0.83156  -0.09013
C          C       0.44749   0.20237   0.90906   0.60325
C          C       0.89279   0.77520   0.95565   0.64146
C          C       0.11972   0.64056   0.60808  -0.03905
C          C       0.93079   0.56160   0.57353  -0.09250
C          C       0.18822   0.57835   0.53369  -0.09549
C          C       0.24941   0.78711   0.72955   0.62729
C          C       0.44150   0.65316   0.08603  -0.03105
C          C       0.24096   0.57927   0.98780  -0.09377
C          C       0.13391   0.43959   0.97368  -0.08617
C          C       0.22550   0.37332   0.05892  -0.03783
C          C       0.42660   0.44644   0.15549  -0.10028
C          C       0.53479   0.58556   0.16844  -0.09007
C          C       0.55250   0.79763   0.09094   0.60324
C          C       0.10721   0.22480   0.04435   0.64156
C          C       0.88027   0.35943   0.39192  -0.03908
C          C       0.06920   0.43840   0.42647  -0.09249
C          C       0.81178   0.42165   0.46631  -0.09549
C          C       0.75057   0.21289   0.27044   0.62728
O          O       0.53788   0.12896   0.95753  -0.70774
O          O       0.27299   0.15573   0.87183  -0.55780
O          O       0.07417   0.81972   0.01438  -0.61916
O          O       0.81006   0.85087   0.90784  -0.64868
O          O       0.17462   0.84241   0.78522  -0.61748
O          O       0.42858   0.84449   0.77277  -0.62881
O          O       0.46212   0.87104   0.04246  -0.70761
O          O       0.72700   0.84427   0.12817  -0.55802
O          O       0.92581   0.18027   0.98561  -0.61905
O          O       0.18993   0.14913   0.09216  -0.64888
O          O       0.82537   0.15758   0.21477  -0.61762
O          O       0.57141   0.15551   0.22723  -0.62872

