data_crystal

_audit_creation_method 'AiiDA-DDEC plugin'

_cell_length_a         9.37164
_cell_length_b         9.64053
_cell_length_c        11.64714

_cell_angle_alpha     91.00760
_cell_angle_beta     99.27177
_cell_angle_gamma     108.11916

_symmetry_space_group_name_Hall 'P 1'
_symmetry_space_group_name_H-M  'P 1'

loop_
_symmetry_equiv_pos_as_xyz
 'x,y,z'

loop_
_atom_site_label
_atom_site_type_symbol
_atom_site_fract_x
_atom_site_fract_y
_atom_site_fract_z
_atom_site_charge
La         La      0.71649   0.96889   0.05668   1.95621
La         La      0.28352   0.03111   0.94331   1.95620
H          H       0.67570   0.52398   0.96360   0.13813
H          H       0.81165   0.20039   0.78689   0.14202
H          H       0.09979   0.64840   0.83117   0.13341
H          H       0.82001   0.42288   0.59110   0.12918
H          H       0.72021   0.29837   0.39078   0.12402
H          H       0.07806   0.10326   0.42946   0.11961
H          H       0.17956   0.22891   0.63047   0.13861
H          H       0.32430   0.47602   0.03640   0.13817
H          H       0.18835   0.79961   0.21311   0.14201
H          H       0.90022   0.35160   0.16883   0.13340
H          H       0.17999   0.57712   0.40890   0.12924
H          H       0.27980   0.70163   0.60922   0.12407
H          H       0.92194   0.89674   0.57054   0.11959
H          H       0.82045   0.77109   0.36952   0.13851
C          C       0.92474   0.75517   0.95426   0.65575
C          C       0.89199   0.60232   0.90466  -0.03315
C          C       0.75670   0.49512   0.91860  -0.10440
C          C       0.72928   0.34953   0.87905  -0.02608
C          C       0.59031   0.23663   0.90354   0.60594
C          C       0.83179   0.31270   0.81869  -0.18339
C          C       0.96048   0.42306   0.79801   0.24600
C          C       0.99502   0.56625   0.84418  -0.18381
C          C       0.00284   0.32849   0.62226   0.26679
C          C       0.87476   0.35179   0.55570  -0.22516
C          C       0.81969   0.28274   0.44416  -0.06151
C          C       0.89070   0.19048   0.39910  -0.07624
C          C       0.82365   0.10880   0.28429   0.55883
C          C       0.02306   0.17390   0.46528  -0.06680
C          C       0.08014   0.24355   0.57642  -0.19817
C          C       0.07527   0.24483   0.04574   0.65569
C          C       0.10801   0.39768   0.09534  -0.03315
C          C       0.24331   0.50488   0.08140  -0.10434
C          C       0.27072   0.65047   0.12095  -0.02621
C          C       0.40969   0.76337   0.09646   0.60599
C          C       0.16821   0.68730   0.18131  -0.18333
C          C       0.03953   0.57694   0.20199   0.24595
C          C       0.00498   0.43375   0.15582  -0.18382
C          C      -0.00284   0.67151   0.37774   0.26669
C          C       0.12524   0.64821   0.44430  -0.22510
C          C       0.18032   0.71726   0.55584  -0.06158
C          C       0.10931   0.80952   0.60090  -0.07615
C          C       0.17635   0.89120   0.71571   0.55888
C          C       0.97694   0.82610   0.53472  -0.06692
C          C       0.91987   0.75645   0.42357  -0.19805
O          O       0.06174   0.84047   0.97204  -0.66478
O          O       0.81257   0.79191   0.97787  -0.64825
O          O       0.47273   0.27211   0.91121  -0.57771
O          O       0.59011   0.10257   0.91738  -0.71249
O          O       0.06196   0.39003   0.73525  -0.20709
O          O       0.71460   0.13906   0.21801  -0.62882
O          O       0.87450   0.00766   0.25040  -0.61664
O          O       0.93826   0.15953   0.02796  -0.66480
O          O       0.18744   0.20809   0.02213  -0.64817
O          O       0.52727   0.72789   0.08879  -0.57765
O          O       0.40989   0.89743   0.08262  -0.71250
O          O       0.93804   0.60997   0.26475  -0.20710
O          O       0.28540   0.86094   0.78199  -0.62875
O          O       0.12550   0.99234   0.74960  -0.61675

