data_crystal

_audit_creation_method 'AiiDA-DDEC plugin'

_cell_length_a        11.18670
_cell_length_b         9.86190
_cell_length_c        15.74560

_cell_angle_alpha     94.23068
_cell_angle_beta     89.95196
_cell_angle_gamma     90.39061

_symmetry_space_group_name_Hall 'P 1'
_symmetry_space_group_name_H-M  'P 1'

loop_
_symmetry_equiv_pos_as_xyz
 'x,y,z'

loop_
_atom_site_label
_atom_site_type_symbol
_atom_site_fract_x
_atom_site_fract_y
_atom_site_fract_z
_atom_site_charge
Tb         Tb      0.98745   0.75230   0.98112   2.06124
Tb         Tb      0.48460   0.74858   0.52270   2.06485
Tb         Tb      0.01252   0.24962   0.01984   2.06517
Tb         Tb      0.51341   0.24953   0.47845   2.06324
H          H       0.79365   0.22133   0.80683   0.14882
H          H       0.63786   0.24401   0.68193   0.13575
H          H       0.29313   0.27946   0.69113   0.14831
H          H       0.13783   0.25699   0.81638   0.13581
H          H       0.20752   0.78036   0.19385   0.14845
H          H       0.36342   0.75667   0.31865   0.13620
H          H       0.70648   0.72102   0.30885   0.14908
H          H       0.86229   0.74472   0.18386   0.13447
C          C       0.91538   0.46494   0.87121   0.67936
C          C       0.82905   0.43877   0.80192  -0.14325
C          C       0.77359   0.31489   0.77749  -0.08942
C          C       0.69141   0.32677   0.71126  -0.08562
C          C       0.68438   0.45916   0.68632  -0.14564
C          C       0.60509   0.50632   0.62077   0.67028
C          C       0.41648   0.03788   0.62906   0.67615
C          C       0.32999   0.06346   0.69802  -0.14454
C          C       0.27377   0.18634   0.72136  -0.08841
C          C       0.19144   0.17439   0.78764  -0.08628
C          C       0.18534   0.04219   0.81334  -0.14340
C          C       0.10700   0.99345   0.87917   0.66477
C          C       0.08513   0.53921   0.12908   0.68083
C          C       0.17159   0.56336   0.19831  -0.14539
C          C       0.22742   0.68675   0.22306  -0.08568
C          C       0.30959   0.67422   0.28915  -0.08764
C          C       0.31605   0.54145   0.31361  -0.14453
C          C       0.39492   0.49361   0.37917   0.67145
C          C       0.58222   0.96181   0.37140   0.67595
C          C       0.66939   0.93710   0.30231  -0.14299
C          C       0.72583   0.81437   0.27876  -0.08919
C          C       0.80838   0.82688   0.21261  -0.08731
C          C       0.81494   0.95892   0.18682  -0.14411
C          C       0.89471   0.00775   0.12155   0.66449
S          S       0.78050   0.56904   0.74342   0.25379
S          S       0.28193   0.93342   0.75740   0.25508
S          S       0.21944   0.43234   0.25638   0.25335
S          S       0.71757   0.06730   0.24276   0.25246
N          N       0.73897   0.75312   0.95900   0.72682
N          N       0.23543   0.74704   0.54110   0.72621
N          N       0.26086   0.24755   0.04082   0.72210
N          N       0.76293   0.25270   0.45897   0.72483
O          O       0.97173   0.57831   0.87835  -0.68680
O          O       0.53591   0.41971   0.58060  -0.71907
O          O       0.79350   0.67917   0.01257  -0.56579
O          O       0.80936   0.83269   0.91881  -0.55942
O          O       0.63135   0.74705   0.94761  -0.30776
O          O       0.92809   0.37110   0.92248  -0.71068
O          O       0.60683   0.63271   0.60675  -0.66578
O          O       0.47338   0.92581   0.62339  -0.68675
O          O       0.03714   0.07988   0.91803  -0.71911
O          O       0.29058   0.82119   0.48798  -0.55834
O          O       0.30595   0.67288   0.58445  -0.56599
O          O       0.12722   0.74706   0.54976  -0.30753
O          O       0.42969   0.13007   0.57657  -0.70930
O          O       0.10999   0.86767   0.89452  -0.65898
O          O       0.02791   0.42662   0.12118  -0.68944
O          O       0.46374   0.58062   0.41933  -0.71862
O          O       0.20681   0.32268   0.98775  -0.56275
O          O       0.19005   0.16761   0.08056  -0.55734
O          O       0.36862   0.25255   0.05213  -0.30697
O          O       0.07270   0.63426   0.07856  -0.70872
O          O       0.39316   0.36724   0.39324  -0.66526
O          O       0.52381   0.07318   0.37671  -0.68682
O          O       0.96671   0.92308   0.08325  -0.71558
O          O       0.70848   0.17856   0.51255  -0.55947
O          O       0.69179   0.32624   0.41575  -0.56448
O          O       0.87117   0.25304   0.45010  -0.30746
O          O       0.56999   0.86944   0.42394  -0.70816
O          O       0.89034   0.13332   0.10582  -0.66357

