data_crystal

_audit_creation_method 'AiiDA-DDEC plugin'

_cell_length_a        10.12012
_cell_length_b        10.83818
_cell_length_c        14.84514

_cell_angle_alpha     98.42039
_cell_angle_beta     95.91871
_cell_angle_gamma     110.26357

_symmetry_space_group_name_Hall 'P 1'
_symmetry_space_group_name_H-M  'P 1'

loop_
_symmetry_equiv_pos_as_xyz
 'x,y,z'

loop_
_atom_site_label
_atom_site_type_symbol
_atom_site_fract_x
_atom_site_fract_y
_atom_site_fract_z
_atom_site_charge
Cd         Cd      0.00000   0.50000   0.00000   1.01976
Cd         Cd      0.90346   0.37775   0.39648   0.95781
Cd         Cd      0.01927   0.27403   0.17389   0.94537
Cd         Cd      0.09654   0.62225   0.60352   0.95775
Cd         Cd      0.98073   0.72597   0.82611   0.94539
H          H       0.31516   0.05369   0.82441   0.11329
H          H       0.16964   0.92419   0.34329   0.13668
H          H       0.60688   0.58031   0.66674   0.12807
H          H       0.45812   0.21732   0.19405   0.11552
H          H       0.74488   0.54001   0.07700   0.09892
H          H       0.82225   0.84922   0.68243   0.10993
H          H       0.65494   0.48709   0.38211   0.11412
H          H       0.52464   0.22685   0.93423   0.11196
H          H       0.54188   0.78267   0.80596   0.11556
H          H       0.08257   0.01325   0.93690   0.10042
H          H       0.17775   0.15077   0.31757   0.10990
H          H       0.83036   0.07581   0.65671   0.13660
H          H       0.25512   0.45999   0.92300   0.09885
H          H       0.91743   0.98674   0.06310   0.10040
H          H       0.53875   0.46088   0.16014   0.12132
H          H       0.09161   0.24397   0.92682   0.12719
H          H       0.39313   0.41969   0.33326   0.12804
H          H       0.34506   0.51291   0.61789   0.11414
H          H       0.68484   0.94631   0.17559   0.11342
H          H       0.46125   0.53912   0.83986   0.12127
H          H       0.26031   0.05285   0.07494   0.10403
H          H       0.47536   0.77315   0.06577   0.11202
H          H       0.73969   0.94715   0.92506   0.10409
H          H       0.90839   0.75602   0.07318   0.12719
C          C       0.35245   0.46117   0.47250  -0.03523
C          C       0.47693   0.52143   0.90979  -0.09516
C          C       0.29865   0.81226   0.73563   0.56612
C          C       0.64755   0.53883   0.52751  -0.03505
C          C       0.03648   0.82141   0.21060   0.07385
C          C       0.59005   0.96725   0.15432  -0.08853
C          C       0.88074   0.93990   0.73392   0.09849
C          C       0.36213   0.47656   0.95628  -0.08038
C          C       0.58353   0.09108   0.19249  -0.02537
C          C       0.35217   0.02903   0.09855  -0.10704
C          C       0.52566   0.12833   0.90718  -0.09491
C          C       0.46345   0.12153   0.16452  -0.10259
C          C       0.80454   0.58429   0.55932   0.58270
C          C       0.96352   0.17859   0.78941   0.07378
C          C       0.02493   0.03183   0.87759   0.08678
C          C       0.11926   0.06010   0.26608   0.09847
C          C       0.64783   0.97097   0.90145  -0.10702
C          C       0.22775   0.79914  -0.00012   0.58494
C          C       0.26146   0.40284   0.09602   0.57093
C          C       0.58727   0.49280   0.43361  -0.08796
C          C       0.88542   0.06544   0.72037  -0.15265
C          C       0.41273   0.50719   0.56639  -0.08789
C          C       0.38430   0.45483   0.04671  -0.03147
C          C       0.98086   0.31250   0.77260   0.24454
C          C       0.03173   0.16019   0.87047  -0.15873
C          C       0.73854   0.59716   0.90398   0.57094
C          C       0.52307   0.47857   0.09021  -0.09501
C          C       0.70135   0.18773   0.26438   0.56624
C          C       0.55944   0.54589   0.59394  -0.09224
C          C       0.53655   0.87847   0.83548  -0.10250
C          C       0.47434   0.87166   0.09282  -0.09502
C          C       0.40995   0.03274   0.84568  -0.08861
C          C       0.77225   0.20086   0.00013   0.58504
C          C       0.35460   0.90212   0.06447  -0.01990
C          C       0.11458   0.93455   0.27963  -0.15256
C          C       0.01914   0.68750   0.22740   0.24450
C          C       0.64540   0.09788   0.93553  -0.02002
C          C       0.61570   0.54517   0.95329  -0.03139
C          C       0.63787   0.52344   0.04372  -0.08049
C          C       0.41647   0.90892   0.80751  -0.02530
C          C       0.96827   0.83980   0.12953  -0.15877
C          C       0.19547   0.41571   0.44068   0.58286
C          C       0.97507   0.96817   0.12241   0.08672
C          C       0.44056   0.45411   0.40606  -0.09221
N          N       0.00710   0.65785   0.31211  -0.24092
N          N       0.98450   0.47902   0.21247  -0.07867
N          N       0.01466   0.47220   0.69999  -0.06479
N          N       0.98534   0.52780   0.30002  -0.06468
N          N       0.99500   0.42237   0.83554  -0.24302
N          N       0.95178   0.92350   0.81057  -0.22611
N          N       0.01551   0.52098   0.78753  -0.07879
N          N       0.99290   0.34215   0.68790  -0.24086
N          N       0.00500   0.57762   0.16446  -0.24315
N          N       0.04822   0.07650   0.18943  -0.22619
O          O       0.11497   0.44974   0.49556  -0.59541
O          O       0.71980   0.62570   0.82532  -0.52996
O          O       0.32686   0.73049   0.67623  -0.53623
O          O       0.17138   0.81275   0.73180  -0.59036
O          O       0.82862   0.18724   0.26820  -0.59033
O          O       0.79398   0.32401  -0.00026  -0.59184
O          O       0.20602   0.67598   0.00026  -0.59174
O          O       0.84854   0.15579   0.04960  -0.56824
O          O       0.86000   0.65646   0.63778  -0.55403
O          O       0.15146   0.84421   0.95040  -0.56830
O          O       0.14000   0.34353   0.36223  -0.55409
O          O       0.28020   0.37429   0.17468  -0.52981
O          O       0.67314   0.26951   0.32377  -0.53631
O          O       0.13388   0.38099   0.05429  -0.61140
O          O       0.88503   0.55025   0.50444  -0.59539
O          O       0.86612   0.61900   0.94571  -0.61132

