data_crystal

_audit_creation_method 'AiiDA-DDEC plugin'

_cell_length_a         7.14515
_cell_length_b        16.10394
_cell_length_c        15.92684

_cell_angle_alpha     117.63322
_cell_angle_beta     98.28703
_cell_angle_gamma     99.32638

_symmetry_space_group_name_Hall 'P 1'
_symmetry_space_group_name_H-M  'P 1'

loop_
_symmetry_equiv_pos_as_xyz
 'x,y,z'

loop_
_atom_site_label
_atom_site_type_symbol
_atom_site_fract_x
_atom_site_fract_y
_atom_site_fract_z
_atom_site_charge
Fe         Fe      0.75564   0.72915   0.34189   0.83171
Fe         Fe      0.03260   0.60969   0.26866   0.88003
Fe         Fe      0.96734   0.39042   0.73142   0.88019
Fe         Fe      0.43195   0.66292   0.39517   0.82867
Fe         Fe      0.56804   0.33693   0.60432   0.82972
Fe         Fe      0.24430   0.27045   0.65803   0.83270
H          H       0.15128   0.99394   0.45092   0.13410
H          H       0.84787   0.54624  -0.00056   0.13371
H          H       0.29585   0.45170   0.45124   0.13378
H          H       0.84891   0.00581   0.54893   0.13440
H          H       0.15291   0.45347   0.00041   0.13768
H          H       0.70491   0.54864   0.54892   0.13284
C          C       0.63460   0.41887   0.82489   0.56441
C          C       0.64729   0.09078   0.54398  -0.12904
C          C       0.30447   0.47468  -0.00102  -0.14708
C          C       0.64243   0.57059   0.08799   0.10523
C          C       0.07048   0.51674   0.42830   0.10909
C          C       0.36555   0.58130   0.17482   0.56454
C          C       0.35811   0.42954   0.91184   0.10516
C          C       0.30453   0.99729   0.47388  -0.14188
C          C       0.89726   0.54527   0.45550  -0.12678
C          C       0.80547   0.17726   0.59340   0.56279
C          C       0.78841   0.59522   0.42075   0.56195
C          C       0.10313   0.45476   0.54444  -0.12586
C          C       0.44343   0.08515   0.51526   0.10968
C          C       0.16717   0.47428   0.47324  -0.13935
C          C       0.55667   0.91459   0.48449   0.10937
C          C       0.93007   0.48350   0.57169   0.10798
C          C       0.83351   0.52605   0.52687  -0.13747
C          C       0.69568   0.00248   0.52590  -0.14099
C          C       0.35274   0.90907   0.45614  -0.12904
C          C       0.69613   0.52535   0.00086  -0.14427
C          C       0.19417   0.82270   0.40714   0.56412
C          C       0.21085   0.40431   0.57895   0.56127
C          C       0.55981   0.45504   0.91021  -0.12445
C          C       0.44062   0.54515   0.08958  -0.12588
S          S       0.35061   0.18155   0.51667  -0.30389
S          S       0.16101   0.51794   0.33064  -0.30872
S          S       0.82880   0.66938   0.18744  -0.30846
S          S       0.83896   0.48215   0.66911  -0.30809
S          S       0.17182   0.33069   0.81246  -0.30925
S          S       0.64905   0.81817   0.48337  -0.30311
O          O       0.37158   0.38795   0.55419  -0.50310
O          O       0.48450   0.63435   0.26493  -0.57098
O          O       0.85214   0.62947   0.36502  -0.56992
O          O       0.22676   0.73411   0.37096  -0.57580
O          O       0.17884   0.56016   0.16651  -0.50362
O          O       0.82146   0.43951   0.83336  -0.50289
O          O       0.51561   0.36638   0.73472  -0.57170
O          O       0.77296   0.26584   0.62917  -0.57536
O          O       0.14555   0.36913   0.63374  -0.56969
O          O       0.01608   0.82866   0.39325  -0.50802
O          O       0.62802   0.61179   0.44577  -0.50331
O          O       0.98351   0.17125   0.60771  -0.50714

