data_crystal

_audit_creation_method 'AiiDA-DDEC plugin'

_cell_length_a         7.02588
_cell_length_b        11.38226
_cell_length_c        11.36286

_cell_angle_alpha     79.13684
_cell_angle_beta     72.38213
_cell_angle_gamma     71.95230

_symmetry_space_group_name_Hall 'P 1'
_symmetry_space_group_name_H-M  'P 1'

loop_
_symmetry_equiv_pos_as_xyz
 'x,y,z'

loop_
_atom_site_label
_atom_site_type_symbol
_atom_site_fract_x
_atom_site_fract_y
_atom_site_fract_z
_atom_site_charge
Fe         Fe      0.50002   0.00005  -0.00005   1.44559
Fe         Fe     -0.00001   0.00007  -0.00009   1.33690
H          H       0.36284   0.38430   0.00083   0.13052
H          H       0.23206   0.87350   0.12657   0.42761
H          H       0.13863  -0.00081   0.61479   0.12962
H          H       0.24594   0.61684  -0.00087   0.12426
H          H       0.76791   0.12666   0.87327   0.42747
H          H       0.25350   0.00090   0.38228   0.12547
H          H       0.63710   0.61578  -0.00083   0.13033
H          H       0.86146   0.00081   0.38511   0.12972
H          H       0.75405   0.38324   0.00087   0.12438
H          H       0.74654  -0.00091   0.61762   0.12546
C          C       0.20500   0.43593   0.00025  -0.10408
C          C       0.29581  -0.00028   0.56325  -0.10514
C          C       0.14028   0.56455  -0.00030  -0.09902
C          C       0.35958   0.00028   0.43475  -0.09833
C          C       0.79495   0.56416  -0.00025  -0.10366
C          C       0.70428   0.00027   0.43663  -0.10504
C          C       0.85968   0.43554   0.00031  -0.09941
C          C       0.64049  -0.00029   0.56514  -0.09829
C          C       0.06504   0.37069   0.00046  -0.03224
C          C       0.13449   0.23225  -0.00027   0.61881
C          C       0.43566  -0.00047   0.62909  -0.03377
C          C       0.36514   0.00024   0.76735   0.61867
C          C       0.93492   0.62940  -0.00047  -0.03284
C          C       0.86550   0.76785   0.00020   0.61908
C          C       0.56441   0.00047   0.37080  -0.03414
C          C       0.63488  -0.00018   0.23253   0.61934
O          O       0.32380   0.17854  -0.00104  -0.57310
O          O       0.17608   0.00136   0.81882  -0.55225
O          O       0.00140   0.82037   0.00111  -0.55065
O          O       0.50024  -0.00071   0.17807  -0.57488
O          O       0.67620   0.82154   0.00092  -0.57364
O          O       0.82390  -0.00124   0.18102  -0.55228
O          O      -0.00145   0.17975  -0.00119  -0.55082
O          O       0.49974   0.00076   0.82185  -0.57462
O          O       0.24028   0.94031   0.05939  -0.84268
O          O       0.75973   0.05981   0.94041  -0.84232

