data_crystal

_audit_creation_method 'AiiDA-DDEC plugin'

_cell_length_a         9.22048
_cell_length_b         9.70754
_cell_length_c         9.67335

_cell_angle_alpha     123.87665
_cell_angle_beta     89.90341
_cell_angle_gamma     89.77467

_symmetry_space_group_name_Hall 'P 1'
_symmetry_space_group_name_H-M  'P 1'

loop_
_symmetry_equiv_pos_as_xyz
 'x,y,z'

loop_
_atom_site_label
_atom_site_type_symbol
_atom_site_fract_x
_atom_site_fract_y
_atom_site_fract_z
_atom_site_charge
Zn         Zn      0.57285   0.40384   0.26973   0.72296
Zn         Zn      0.07029   0.59760   0.73489   0.72373
H          H       0.25357   0.53710   0.42671   0.08463
H          H       0.43791   0.30016   0.77846   0.11463
H          H       0.24842   0.34391   0.80364   0.11486
H          H       0.60662   0.57668   0.93138   0.27399
H          H       0.57493   0.30139   0.53409   0.11596
H          H       0.60651   0.08916   0.26388   0.07747
H          H       0.77795   0.10015   0.18569   0.08295
H          H       0.28724   0.63852   0.00231   0.08194
H          H       0.69354   0.84001   0.89947   0.13516
H          H       0.74073   0.80702   0.05450   0.11855
H          H       0.66570   0.13647   0.99542   0.29301
H          H       0.50040   0.10066   0.04125   0.29032
H          H       0.75486   0.46468   0.57645   0.08482
H          H       0.93939   0.69836   0.22174   0.11473
H          H       0.74924   0.65965   0.20048   0.11548
H          H       0.10697   0.42263   0.06750   0.27334
H          H       0.07298   0.70261   0.47013   0.11554
H          H       0.10905   0.90982   0.73523   0.07662
H          H       0.28051   0.89647   0.81163   0.08275
H          H       0.78725   0.36259   0.00350   0.08117
H          H       0.19729   0.15986   0.09787   0.13585
H          H       0.24291   0.19054   0.94099   0.11935
H          H       0.16883   0.86424   0.00452   0.29229
H          H       0.00361   0.90454   0.96222   0.28930
C          C       0.31053   0.48986   0.48986   0.12048
C          C       0.35484   0.39100   0.79802  -0.25363
C          C       0.47489   0.36496   0.54392  -0.13304
C          C       0.36314   0.41091   0.65647   0.16542
C          C       0.66593   0.05736   0.15141   0.02932
C          C       0.39472   0.51366   0.10066   0.55654
C          C       0.38133   0.55649   0.97025   0.03312
C          C       0.66135   0.86982   0.02308  -0.32358
C          C       0.51050   0.80035   0.01319   0.51559
C          C       0.81132   0.51207   0.51330   0.11803
C          C       0.85535   0.61018   0.20457  -0.25327
C          C       0.97407   0.63797   0.45977  -0.13275
C          C       0.86365   0.59061   0.34633   0.16657
C          C       0.16861   0.94119   0.84708   0.02909
C          C       0.89181   0.48443   0.90070   0.55863
C          C       0.88056   0.44375   0.03269   0.03211
C          C       0.16431   0.12894   0.97427  -0.32680
C          C       0.01276   0.19925   0.98637   0.51714
N          N       0.59971   0.15270   0.08930  -0.55473
N          N       0.50921   0.64140   0.96801  -0.37222
N          N       0.44149   0.41505   0.43875  -0.29998
N          N       0.25899   0.49114   0.62161  -0.35190
N          N       0.10192   0.84864   0.91185  -0.55657
N          N       0.00987   0.35856   0.03268  -0.37307
N          N       0.94081   0.58821   0.56531  -0.29972
N          N       0.76058   0.50954   0.38080  -0.35146
O          O       0.52582   0.49095   0.13168  -0.54708
O          O       0.28187   0.49548   0.16120  -0.55033
O          O       0.39961   0.88973   0.04960  -0.53786
O          O       0.02214   0.51490   0.87531  -0.54738
O          O       0.77912   0.49364   0.83389  -0.54958
O          O       0.90261   0.11047   0.95110  -0.53845

