data_crystal

_audit_creation_method 'AiiDA-DDEC plugin'

_cell_length_a         6.71438
_cell_length_b        10.15155
_cell_length_c        16.01039

_cell_angle_alpha     87.02320
_cell_angle_beta     89.04824
_cell_angle_gamma     80.75569

_symmetry_space_group_name_Hall 'P 1'
_symmetry_space_group_name_H-M  'P 1'

loop_
_symmetry_equiv_pos_as_xyz
 'x,y,z'

loop_
_atom_site_label
_atom_site_type_symbol
_atom_site_fract_x
_atom_site_fract_y
_atom_site_fract_z
_atom_site_charge
Co         Co      0.90410   0.50161   0.28482   0.88493
Co         Co      0.03141   0.86322   0.99761   1.02264
Co         Co      0.09714   0.49891   0.71432   0.88682
Co         Co      0.96870   0.14384   0.00041   1.01793
Co         Co      0.49959   0.00370  -0.00101   1.18446
H          H       0.21610   0.00746   0.89866   0.39900
H          H       0.66798   0.73681   0.39371   0.11055
H          H       0.84775   0.32668   0.45424   0.11269
H          H       0.73665   0.45698   0.60151   0.13952
H          H       0.75560   0.72879   0.61611   0.11243
H          H       0.50198   0.70327   0.61484   0.12507
H          H       0.84788   0.88347   0.47314   0.10661
H          H       0.26605   0.89058   0.59040   0.11373
H          H       0.17038   0.82661   0.34059   0.08807
H          H       0.93719   0.97260   0.19233   0.09360
H          H       0.83892   0.95921   0.29394   0.09376
H          H       0.11770   0.06863   0.34706   0.07415
H          H       0.34550   0.17086   0.25539   0.12273
H          H       0.56018   0.96149   0.21184   0.10873
H          H       0.45723   0.94947   0.31300   0.08341
H          H       0.43673   0.74474   0.24516   0.11389
H          H       0.78473  -0.00064   0.09863   0.39824
H          H       0.33255   0.26483   0.60543   0.11053
H          H       0.15296   0.67452   0.54396   0.11232
H          H       0.26487   0.54349   0.39710   0.13912
H          H       0.24447   0.27120   0.38347   0.11213
H          H       0.49822   0.29650   0.38413   0.12459
H          H       0.15277   0.11717   0.52676   0.10679
H          H       0.73462   0.10998   0.40946   0.11317
H          H       0.83179   0.17352   0.65699   0.08876
H          H       0.06160   0.02836   0.80640   0.09284
H          H       0.16167   0.04032   0.70506   0.09424
H          H       0.88186   0.93096   0.65199   0.07369
H          H       0.65396   0.82970   0.74439   0.12248
H          H       0.44031   0.04032   0.78757   0.10707
H          H       0.54101   0.05048   0.68597   0.08252
H          H       0.56388   0.25642   0.75167   0.11284
C          C       0.70046   0.64304   0.42963   0.07158
C          C       0.79284   0.43104   0.46381  -0.03795
C          C       0.73951   0.49351   0.53660  -0.10303
C          C       0.62464   0.73178   0.57519  -0.12671
C          C       0.56226   0.86977   0.53531   0.08844
C          C       0.69559   0.93406   0.48570  -0.14636
C          C       0.36681   0.93790   0.54919  -0.13658
C          C       0.12793   0.83306   0.27375  -0.10179
C          C       0.97895   0.96235   0.25835  -0.19244
C          C       0.07364   0.08338   0.28043  -0.11770
C          C       0.27216   0.09106   0.23145  -0.13376
C          C       0.41862   0.95858   0.24624  -0.18175
C          C       0.32918   0.83401   0.22493  -0.13105
C          C       0.03913   0.70729   0.26392   0.57032
C          C       0.30979   0.82415   0.13003   0.62348
C          C       0.92279   0.21345   0.27719   0.58984
C          C       0.24133   0.13074   0.13823   0.63465
C          C       0.30037   0.35837   0.56928   0.07195
C          C       0.20798   0.57009   0.53466  -0.03732
C          C       0.26172   0.50724   0.46205  -0.10383
C          C       0.37581   0.26847   0.42412  -0.12721
C          C       0.43823   0.13072   0.46438   0.08896
C          C       0.30497   0.06651   0.51409  -0.14541
C          C       0.63376   0.06265   0.45061  -0.13535
C          C       0.87289   0.16740   0.72395  -0.10744
C          C       0.02096   0.03798   0.74025  -0.19043
C          C       0.92613   0.91681   0.71861  -0.11850
C          C       0.72757   0.90989   0.76774  -0.13142
C          C       0.58125   0.04243   0.75253  -0.18068
C          C       0.67140   0.16747   0.77243  -0.12733
C          C       0.96249   0.29269   0.73391   0.57214
C          C       0.69037   0.18012   0.86699   0.62322
C          C       0.07706   0.78666   0.72246   0.59012
C          C       0.75858   0.87186   0.86117   0.63226
N          N       0.76891   0.52486   0.39724  -0.34242
N          N       0.68196   0.62758   0.51403   0.06032
N          N       0.23158   0.47666   0.60142  -0.34384
N          N       0.31927   0.37328   0.48492   0.06020
O          O       0.19973   0.00610   0.95931  -0.90909
O          O       0.15493   0.59361   0.27471  -0.53700
O          O       0.84937   0.70765   0.25456  -0.52652
O          O       0.73802   0.21411   0.28305  -0.52747
O          O       0.01082   0.32029   0.27484  -0.58812
O          O       0.39599   0.12590   0.09177  -0.58010
O          O       0.05825   0.16721   0.11295  -0.56685
O          O       0.45472   0.84699   0.08371  -0.57836
O          O       0.14185   0.79287   0.10442  -0.56942
O          O       0.79995   0.00088   0.03791  -0.90785
O          O       0.84700   0.40669   0.72495  -0.53647
O          O       0.15280   0.29148   0.74166  -0.52885
O          O       0.26184   0.78584   0.71682  -0.52813
O          O       0.98907   0.67980   0.72509  -0.58783
O          O       0.60409   0.88000   0.90780  -0.57717
O          O       0.94130   0.83343   0.88649  -0.56562
O          O       0.54427   0.15911   0.91309  -0.57951
O          O       0.85811   0.21217   0.89236  -0.56884

