data_crystal

_audit_creation_method 'AiiDA-DDEC plugin'

_cell_length_a        10.87316
_cell_length_b        11.75476
_cell_length_c        14.86573

_cell_angle_alpha     89.92961
_cell_angle_beta     109.54745
_cell_angle_gamma     90.02934

_symmetry_space_group_name_Hall 'P 1'
_symmetry_space_group_name_H-M  'P 1'

loop_
_symmetry_equiv_pos_as_xyz
 'x,y,z'

loop_
_atom_site_label
_atom_site_type_symbol
_atom_site_fract_x
_atom_site_fract_y
_atom_site_fract_z
_atom_site_charge
Cu         Cu      0.40672   0.42441   0.97687   0.86910
Cu         Cu      0.59234   0.92320   0.52300   0.87008
Cu         Cu      0.59328   0.57560   0.02313   0.86908
Cu         Cu      0.40766   0.07680   0.47699   0.87004
H          H       0.88661   0.37574   0.95089   0.12854
H          H       0.88730   0.12587   0.73816   0.13655
H          H       0.52323   0.25368   0.75358   0.14684
H          H       0.09290   0.43158   0.90736   0.14339
H          H       0.11464   0.87693   0.54937   0.12760
H          H       0.11202   0.62579   0.76123   0.13697
H          H       0.47701   0.75268   0.74663   0.14727
H          H       0.90752   0.93226   0.59294   0.14372
H          H       0.11339   0.62426   0.04911   0.12856
H          H       0.11270   0.87413   0.26184   0.13651
H          H       0.47677   0.74632   0.24641   0.14679
H          H       0.90710   0.56842   0.09264   0.14335
H          H       0.88536   0.12307   0.45063   0.12753
H          H       0.88798   0.37421   0.23877   0.13707
H          H       0.52299   0.24733   0.25337   0.14727
H          H       0.09248   0.06774   0.40706   0.14370
C          C       0.62556   0.39115   0.90837   0.58573
C          C       0.69756   0.32107   0.85792   0.00520
C          C       0.83420   0.32243   0.89054  -0.17785
C          C       0.90066   0.25212   0.84671   0.13386
C          C       0.83417   0.18093   0.77097  -0.15942
C          C       0.69760   0.18375   0.73635   0.00535
C          C       0.62933   0.25300   0.78009  -0.08559
C          C       0.62453   0.11424   0.65042   0.58557
C          C       0.12165   0.34342   0.90814   0.08288
C          C       0.37592   0.89067   0.59206   0.58494
C          C       0.30310   0.82123   0.64240   0.00623
C          C       0.16650   0.82315   0.60962  -0.17872
C          C       0.09947   0.75262   0.65302   0.12686
C          C       0.16542   0.68107   0.72870  -0.15986
C          C       0.30197   0.68362   0.76359   0.00583
C          C       0.37089   0.75263   0.72012  -0.08569
C          C       0.37394   0.61362   0.84947   0.58554
C          C       0.87861   0.84411   0.59205   0.07283
C          C       0.37444   0.60885   0.09162   0.58560
C          C       0.30244   0.67893   0.14208   0.00526
C          C       0.16580   0.67758   0.10946  -0.17782
C          C       0.09934   0.74788   0.15329   0.13377
C          C       0.16583   0.81907   0.22903  -0.15930
C          C       0.30240   0.81625   0.26365   0.00515
C          C       0.37067   0.74701   0.21991  -0.08547
C          C       0.37547   0.88576   0.34958   0.58565
C          C       0.87835   0.65658   0.09186   0.08276
C          C       0.62408   0.10933   0.40794   0.58503
C          C       0.69690   0.17878   0.35759   0.00622
C          C       0.83350   0.17685   0.39037  -0.17879
C          C       0.90053   0.24738   0.34697   0.12686
C          C       0.83457   0.31893   0.27130  -0.15986
C          C       0.69803   0.31638   0.23641   0.00590
C          C       0.62911   0.24737   0.27987  -0.08571
C          C       0.62606   0.38638   0.15053   0.58550
C          C       0.12139   0.15589   0.40794   0.07281
N          N       0.03994   0.25398   0.88012   0.09585
N          N       0.11402   0.15730   0.88872  -0.11167
N          N       0.23548   0.18961   0.92129  -0.01717
N          N       0.24297   0.30502   0.93404  -0.20615
N          N       0.96024   0.75456   0.61953   0.12062
N          N       0.88614   0.65786   0.61108  -0.11753
N          N       0.76471   0.69030   0.57903  -0.01751
N          N       0.75730   0.80575   0.56654  -0.20571
N          N       0.96006   0.74602   0.11988   0.09591
N          N       0.88598   0.84270   0.11128  -0.11162
N          N       0.76452   0.81039   0.07871  -0.01703
N          N       0.75703   0.69498   0.06596  -0.20617
N          N       0.03976   0.24544   0.38047   0.12062
N          N       0.11386   0.34214   0.38891  -0.11744
N          N       0.23529   0.30970   0.42097  -0.01745
N          N       0.24270   0.19425   0.43346  -0.20581
O          O       0.51380   0.35461   0.90456  -0.52982
O          O       0.68393   0.47993   0.95147  -0.55256
O          O       0.51433   0.15332   0.59890  -0.52849
O          O       0.68017   0.02368   0.63639  -0.55240
O          O       0.48641   0.85192   0.59510  -0.52473
O          O       0.31976   0.98084   0.54993  -0.55665
O          O       0.48551   0.65048   0.90051  -0.53120
O          O       0.31568   0.52481   0.86396  -0.54866
O          O       0.48620   0.64540   0.09544  -0.52973
O          O       0.31607   0.52007   0.04853  -0.55257
O          O       0.48567   0.84668   0.40110  -0.52858
O          O       0.31983   0.97632   0.36361  -0.55230
O          O       0.51359   0.14809   0.40490  -0.52466
O          O       0.68024   0.01916   0.45006  -0.55675
O          O       0.51449   0.34953   0.09949  -0.53125
O          O       0.68432   0.47519   0.13604  -0.54862

