data_crystal

_audit_creation_method 'AiiDA-DDEC plugin'

_cell_length_a         9.02695
_cell_length_b        11.63383
_cell_length_c        13.43816

_cell_angle_alpha     87.57981
_cell_angle_beta     83.81817
_cell_angle_gamma     67.02401

_symmetry_space_group_name_Hall 'P 1'
_symmetry_space_group_name_H-M  'P 1'

loop_
_symmetry_equiv_pos_as_xyz
 'x,y,z'

loop_
_atom_site_label
_atom_site_type_symbol
_atom_site_fract_x
_atom_site_fract_y
_atom_site_fract_z
_atom_site_charge
Zn         Zn      0.14961   0.70184   0.75038   0.74593
Zn         Zn      0.85039   0.29816   0.24962   0.74599
H          H       0.85845   0.60515   0.05741   0.13589
H          H       0.01062   0.94396   0.86261   0.09719
H          H       0.11438   0.07374   0.95777   0.13693
H          H       0.59711   0.79776   0.88054   0.12894
H          H       0.47364   0.68515   0.78464   0.10259
H          H       0.32842   0.10387   0.02063   0.12438
H          H       0.53545   0.60534   0.44260   0.13556
H          H       0.04572   0.94337   0.63771   0.09753
H          H       0.81209   0.07325   0.54245   0.13727
H          H       0.60583   0.79787   0.61969   0.12913
H          H       0.84184   0.68515   0.71574   0.10200
H          H       0.56753   0.10364   0.47938   0.12461
H          H       0.14156   0.39485   0.94259   0.13593
H          H       0.98938   0.05604   0.13739   0.09722
H          H       0.88563   0.92626   0.04223   0.13698
H          H       0.40289   0.20224   0.11946   0.12892
H          H       0.52636   0.31485   0.21536   0.10258
H          H       0.67158   0.89613   0.97937   0.12438
H          H       0.46455   0.39466   0.55740   0.13555
H          H       0.95428   0.05663   0.36229   0.09747
H          H       0.18791   0.92675   0.45755   0.13731
H          H       0.39418   0.20213   0.38031   0.12914
H          H       0.15817   0.31484   0.28427   0.10198
H          H       0.43248   0.89636   0.52062   0.12471
C          C       0.98613   0.64483   0.91885   0.59183
C          C       0.95580   0.56171  -0.00123  -0.18230
C          C       0.13937   0.91718   0.86749   0.08294
C          C       0.19746   0.98741   0.92097  -0.17583
C          C       0.36480   0.94570   0.92915   0.15889
C          C       0.46652   0.83455   0.87844  -0.17329
C          C       0.39924   0.77109   0.82493   0.08307
C          C       0.42232   0.01750   0.99002  -0.12076
C          C       0.37153   0.64429   0.58265   0.59127
C          C       0.48313   0.56152   0.50175  -0.18202
C          C       0.94392   0.91662   0.63279   0.08399
C          C       0.81534   0.98701   0.57926  -0.17726
C          C       0.68977   0.94554   0.57096   0.16103
C          C       0.69952   0.83453   0.62179  -0.17432
C          C       0.83048   0.77091   0.67537   0.08397
C          C       0.56015   0.01740   0.51003  -0.12060
C          C       0.01387   0.35517   0.08115   0.59183
C          C       0.04420   0.43829   0.00124  -0.18229
C          C       0.86063   0.08281   0.13251   0.08297
C          C       0.80254   0.01259   0.07903  -0.17577
C          C       0.63520   0.05430   0.07085   0.15878
C          C       0.53349   0.16545   0.12157  -0.17336
C          C       0.60077   0.22891   0.17507   0.08297
C          C       0.57769   0.98250   0.00999  -0.12060
C          C       0.62847   0.35571   0.41735   0.59119
C          C       0.51688   0.43848   0.49825  -0.18198
C          C       0.05609   0.08338   0.36721   0.08401
C          C       0.18466   0.01298   0.42075  -0.17730
C          C       0.31023   0.05445   0.42904   0.16111
C          C       0.30048   0.16546   0.37821  -0.17432
C          C       0.16952   0.22909   0.32463   0.08400
C          C       0.43985   0.98260   0.48997  -0.12082
N          N       0.23793   0.81023   0.82018  -0.22760
N          N       0.95277   0.80966   0.68013  -0.22620
N          N       0.76207   0.18976   0.17982  -0.22750
N          N       0.04724   0.19034   0.31988  -0.22628
O          O       0.09674   0.58934   0.84690  -0.55067
O          O       0.90603   0.76092   0.92423  -0.58644
O          O       0.31969   0.58898   0.65629  -0.55136
O          O       0.33318   0.76049   0.57599  -0.58632
O          O       0.90326   0.41066   0.15310  -0.55077
O          O       0.09398   0.23908   0.07577  -0.58635
O          O       0.68031   0.41102   0.34371  -0.55144
O          O       0.66682   0.23951   0.42401  -0.58621

