data_crystal

_audit_creation_method 'AiiDA-DDEC plugin'

_cell_length_a         7.17418
_cell_length_b         7.47940
_cell_length_c        11.12289

_cell_angle_alpha     107.51289
_cell_angle_beta     106.44656
_cell_angle_gamma     96.32305

_symmetry_space_group_name_Hall 'P 1'
_symmetry_space_group_name_H-M  'P 1'

loop_
_symmetry_equiv_pos_as_xyz
 'x,y,z'

loop_
_atom_site_label
_atom_site_type_symbol
_atom_site_fract_x
_atom_site_fract_y
_atom_site_fract_z
_atom_site_charge
Al         Al      0.29166   0.29186   0.58401   1.65857
Al         Al      0.70833   0.70814   0.41600   1.65856
Al         Al     -0.00000   0.50000   0.50000   1.64626
Al         Al      0.50000  -0.00000   0.50000   1.64749
H          H       0.01775   0.34267   0.67087   0.41785
H          H       0.14093   0.93835   0.46320   0.41373
H          H       0.65156   0.32865   0.67108   0.41657
H          H       0.32343   0.52517   0.46387   0.41461
H          H       0.98225   0.65733   0.32913   0.41773
H          H       0.85906   0.06165   0.53680   0.41364
H          H       0.34843   0.67135   0.32893   0.41658
H          H       0.67656   0.47484   0.53613   0.41466
H          H       0.54939   0.33475   0.00012   0.12728
H          H       0.45061   0.66525  -0.00012   0.12726
C          C       0.42015   0.06973   0.75015   0.62462
C          C       0.45269   0.03396   0.87898  -0.02738
C          C       0.32795   0.68022   0.75035   0.62697
C          C       0.42485   0.84504   0.87896  -0.03170
C          C       0.57984   0.93027   0.24985   0.62454
C          C       0.54731   0.96605   0.12102  -0.02728
C          C       0.67205   0.31978   0.24965   0.62705
C          C       0.57514   0.15496   0.12104  -0.03187
C          C       0.52612   0.18828   0.00002  -0.11722
C          C       0.47387   0.81172  -0.00002  -0.11724
O          O       0.02467   0.30506   0.58107  -0.92630
O          O       0.24059   0.04034   0.46407  -0.97561
O          O       0.32432   0.19875   0.73318  -0.60514
O          O       0.50078   0.97460   0.67062  -0.57838
O          O       0.55599   0.27576   0.58107  -0.92481
O          O       0.22401   0.42427   0.46440  -0.97588
O          O       0.40724   0.53436   0.73313  -0.60682
O          O       0.16750   0.69540   0.67145  -0.57781
O          O       0.97532   0.69494   0.41893  -0.92626
O          O       0.75940   0.95966   0.53594  -0.97553
O          O       0.67568   0.80125   0.26682  -0.60522
O          O       0.49922   0.02541   0.32938  -0.57825
O          O       0.44400   0.72424   0.41894  -0.92474
O          O       0.77598   0.57573   0.53560  -0.97585
O          O       0.59276   0.46565   0.26687  -0.60674
O          O       0.83249   0.30460   0.32855  -0.57792

