data_crystal

_audit_creation_method 'AiiDA-DDEC plugin'

_cell_length_a         9.38307
_cell_length_b        10.31183
_cell_length_c        11.21447

_cell_angle_alpha     75.31836
_cell_angle_beta     79.25564
_cell_angle_gamma     67.20299

_symmetry_space_group_name_Hall 'P 1'
_symmetry_space_group_name_H-M  'P 1'

loop_
_symmetry_equiv_pos_as_xyz
 'x,y,z'

loop_
_atom_site_label
_atom_site_type_symbol
_atom_site_fract_x
_atom_site_fract_y
_atom_site_fract_z
_atom_site_charge
Ho         Ho      0.96004   0.20797   0.80154   2.02131
Ho         Ho      0.03995   0.79203   0.19845   2.02135
H          H       0.67136   0.80915   0.15066   0.12055
H          H       0.61361   0.13504   0.81666   0.11447
H          H       0.43098   0.42576   0.72547   0.12805
H          H       0.76853   0.49703   0.42503   0.13692
H          H       0.28836   0.90292   0.52699   0.12777
H          H       0.45885   0.20468   0.59731   0.10828
H          H       0.32863   0.19085   0.84933   0.12059
H          H       0.38638   0.86496   0.18333   0.11455
H          H       0.56902   0.57424   0.27453   0.12804
H          H       0.23146   0.50297   0.57496   0.13700
H          H       0.71164   0.09708   0.47301   0.12761
H          H       0.54114   0.79532   0.40269   0.10840
C          C       0.66127   0.96756   0.98083  -0.04839
C          C       0.59640   0.89137   0.08427  -0.09285
C          C       0.56356   0.07590   0.89642  -0.07822
C          C       0.83174   0.93872   0.96259   0.67646
C          C       0.61080   0.45601   0.58365  -0.01880
C          C       0.45933   0.45877   0.62665  -0.09553
C          C       0.65139   0.49775   0.45656  -0.08618
C          C       0.35945   0.06042   0.56864  -0.01871
C          C       0.38135   0.94468   0.51422  -0.09003
C          C       0.47855   0.11515   0.55436  -0.09427
C          C       0.21126   0.12350   0.64349   0.56752
C          C       0.73132   0.39983   0.67187   0.55494
C          C       0.33873   0.03244   0.01917  -0.04834
C          C       0.40359   0.10863   0.91573  -0.09278
C          C       0.43643   0.92410   0.10358  -0.07830
C          C       0.16826   0.06128   0.03741   0.67644
C          C       0.38920   0.54399   0.41634  -0.01869
C          C       0.54066   0.54123   0.37334  -0.09557
C          C       0.34861   0.50224   0.54343  -0.08614
C          C       0.64055   0.93958   0.43136  -0.01880
C          C       0.61864   0.05532   0.48577  -0.09007
C          C       0.52144   0.88485   0.44563  -0.09428
C          C       0.78874   0.87650   0.35651   0.56745
C          C       0.26867   0.60016   0.32813   0.55468
O          O       0.88272   0.02317   0.87817  -0.68538
O          O       0.92242   0.83114   0.03301  -0.70525
O          O       0.86969   0.39677   0.63422  -0.61657
O          O       0.19038   0.22910   0.69409  -0.62918
O          O       0.10433   0.06901   0.66153  -0.63182
O          O       0.69963   0.34279   0.78577  -0.66517
O          O       0.11728   0.97683   0.12183  -0.68535
O          O       0.07757   0.16886   0.96699  -0.70525
O          O       0.13031   0.60323   0.36577  -0.61632
O          O       0.80962   0.77090   0.30591  -0.62897
O          O       0.89567   0.93098   0.33847  -0.63204
O          O       0.30036   0.65720   0.21423  -0.66510

