data_crystal

_audit_creation_method 'AiiDA-DDEC plugin'

_cell_length_a        14.15628
_cell_length_b        14.17725
_cell_length_c        14.17747

_cell_angle_alpha     108.39170
_cell_angle_beta     110.10112
_cell_angle_gamma     110.09952

_symmetry_space_group_name_Hall 'P 1'
_symmetry_space_group_name_H-M  'P 1'

loop_
_symmetry_equiv_pos_as_xyz
 'x,y,z'

loop_
_atom_site_label
_atom_site_type_symbol
_atom_site_fract_x
_atom_site_fract_y
_atom_site_fract_z
_atom_site_charge
Cu         Cu      0.89520   0.20475   0.10036   0.63486
Cu         Cu      0.10458   0.20485   0.30937   0.63224
Cu         Cu      0.60464   0.05939   0.45495   0.63277
Cu         Cu      0.39515   0.85042   0.45474   0.63567
H          H       0.65493   0.10593   0.06028   0.15479
H          H       0.67606   0.21974   0.18041   0.14705
H          H       0.59148   0.07518   0.14459   0.16349
H          H       0.34455   0.40521   0.45070   0.15494
H          H       0.32398   0.50438   0.54358   0.14661
H          H       0.40871   0.55334   0.48403   0.16428
H          H       0.54603   0.20025   0.35666   0.15307
H          H       0.53994   0.29342   0.47022   0.14614
H          H       0.43052   0.23259   0.32548   0.16307
H          H       0.45371   0.81023   0.65421   0.15390
H          H       0.46026   0.93012   0.75367   0.14618
H          H       0.56950   0.89504   0.80236   0.16259
H          H       0.04603   0.10665   0.45025   0.15417
H          H       0.03994   0.22021   0.54342   0.14691
H          H       0.93052   0.07548   0.48259   0.16425
H          H       0.95371   0.40421   0.06023   0.15581
H          H       0.96027   0.50367   0.18012   0.14747
H          H       0.06950   0.55236   0.14504   0.16540
H          H       0.84453   0.20069   0.65520   0.15377
H          H       0.82397   0.29358   0.75437   0.14641
H          H       0.90871   0.23403   0.80333   0.16375
H          H       0.15495   0.81028   0.35593   0.15382
H          H       0.17606   0.93041   0.46975   0.14597
H          H       0.09149   0.89458   0.32518   0.16236
C          C       0.77440   0.13936   0.22515   0.27375
C          C       0.66799   0.13425   0.14749  -0.45866
C          C       0.22560   0.45075   0.36467   0.27288
C          C       0.33196   0.47959   0.46613  -0.45865
C          C       0.41419   0.11441   0.38959   0.27348
C          C       0.48701   0.21561   0.38471  -0.45587
C          C       0.58568   0.97525   0.70027   0.27231
C          C       0.51295   0.89750   0.72867  -0.45515
C          C       0.91414   0.13958   0.36440   0.27244
C          C       0.98701   0.13470   0.46561  -0.45880
C          C       0.08573   0.45031   0.22528   0.27197
C          C       0.01295   0.47867   0.14750  -0.46203
C          C       0.72559   0.11465   0.70074   0.27254
C          C       0.83194   0.21612   0.72958  -0.45683
C          C       0.27441   0.97516   0.38936   0.27129
C          C       0.16801   0.89749   0.38426  -0.45445
C          C       0.79942   0.12163   0.32185  -0.28120
C          C       0.72496   0.09470   0.36969   0.56799
C          C       0.20063   0.52254   0.32212  -0.27932
C          C       0.27527   0.64493   0.36981   0.56731
C          C       0.29947   0.07185   0.37161  -0.28213
C          C       0.22506   0.11974   0.34486   0.56814
C          C       0.70058   0.07206   0.77248  -0.28164
C          C       0.77513   0.11989   0.89486   0.56778
N          N       0.86901   0.16572   0.21299  -0.23735
N          N       0.13085   0.34380   0.29622  -0.23734
N          N       0.45251   0.04617   0.41587  -0.23640
N          N       0.54729   0.96308   0.59359  -0.23516
N          N       0.95246   0.16582   0.29614  -0.23635
N          N       0.04734   0.34362   0.21307  -0.23538
N          N       0.63083   0.04623   0.59379  -0.23703
N          N       0.36904   0.96302   0.41575  -0.23612
O          O       0.62200   0.08225   0.32506  -0.50331
O          O       0.37823   0.70358   0.46064  -0.50279
O          O       0.25794   0.21045   0.33314  -0.50406
O          O       0.74223   0.07516   0.95259  -0.50349
O          O       0.75801   0.08305   0.46045  -0.50378
O          O       0.24237   0.70255   0.32487  -0.50396
O          O       0.87804   0.21071   0.95341  -0.50327
O          O       0.12224   0.07516   0.33267  -0.50310

