data_crystal

_audit_creation_method 'AiiDA-DDEC plugin'

_cell_length_a        10.45434
_cell_length_b        10.46707
_cell_length_c        19.79915

_cell_angle_alpha     77.70630
_cell_angle_beta     77.97440
_cell_angle_gamma     65.57239

_symmetry_space_group_name_Hall 'P 1'
_symmetry_space_group_name_H-M  'P 1'

loop_
_symmetry_equiv_pos_as_xyz
 'x,y,z'

loop_
_atom_site_label
_atom_site_type_symbol
_atom_site_fract_x
_atom_site_fract_y
_atom_site_fract_z
_atom_site_charge
Er         Er      0.74054   0.43132   0.90756   2.02412
Er         Er      0.56525   0.25699   0.59424   2.02393
Er         Er      0.25942   0.56870   0.09245   2.02426
Er         Er      0.43478   0.74300   0.40577   2.02380
H          H       0.70871   0.81340   0.72261   0.14468
H          H       0.61902   0.82216   0.51849   0.13813
H          H       0.68362   0.44581   0.67205   0.13820
H          H       0.18259   0.28419   0.77958   0.15098
H          H       0.17604   0.37292   0.98338   0.13785
H          H       0.54782   0.31804   0.82927   0.13821
H          H       0.29193   0.18623   0.27754   0.15074
H          H       0.38167   0.17811   0.48152   0.13838
H          H       0.31615   0.55450   0.32796   0.13823
H          H       0.81763   0.71555   0.22049   0.15120
H          H       0.82417   0.62701   0.01666   0.13831
H          H       0.45223   0.68213   0.17080   0.13825
C          C       0.71102   0.55264   0.77749   0.56722
C          C       0.65642   0.98003   0.59998   0.56737
C          C       0.63576   0.54693   0.53742   0.68781
C          C       0.69609   0.62295   0.70452  -0.03169
C          C       0.69356   0.76034   0.68508  -0.06559
C          C       0.66687   0.83096   0.61785  -0.03272
C          C       0.64475   0.76385   0.56968  -0.05978
C          C       0.65539   0.62272   0.58818  -0.06951
C          C       0.67999   0.55310   0.65592  -0.07324
C          C       0.44232   0.28591   0.72418   0.56939
C          C       0.01806   0.33320   0.90265   0.56322
C          C       0.44846   0.36300   0.96350   0.68881
C          C       0.37211   0.30083   0.79705  -0.03252
C          C       0.23572   0.30057   0.81679  -0.07122
C          C       0.16614   0.32554   0.88415  -0.03260
C          C       0.23311   0.34894   0.93203  -0.05811
C          C       0.37296   0.34155   0.91319  -0.07079
C          C       0.44161   0.31869   0.84541  -0.07226
C          C       0.28885   0.44732   0.22251   0.56708
C          C       0.34430   0.01997   0.40005   0.56680
C          C       0.36462   0.45321   0.46250   0.68812
C          C       0.30395   0.37713   0.29549  -0.03070
C          C       0.30696   0.23958   0.31497  -0.07223
C          C       0.33385   0.16904   0.38219  -0.03037
C          C       0.35588   0.23629   0.43031  -0.06054
C          C       0.34483   0.37754   0.41178  -0.06956
C          C       0.31995   0.44714   0.34407  -0.07366
C          C       0.55792   0.71375   0.27592   0.56937
C          C       0.98201   0.66726   0.09734   0.56183
C          C       0.55172   0.63702   0.03653   0.68842
C          C       0.62812   0.69897   0.20306  -0.03199
C          C       0.76451   0.69923   0.18327  -0.07171
C          C       0.83407   0.67448   0.11588  -0.03231
C          C       0.76707   0.65113   0.06800  -0.05845
C          C       0.62719   0.65850   0.08688  -0.07044
C          C       0.55849   0.68141   0.15466  -0.07337
O          O       0.73466   0.61314   0.82136  -0.63742
O          O       0.69782   0.43342   0.79764  -0.61169
O          O       0.70212   0.03044   0.63933  -0.63533
O          O       0.59490   0.06126   0.54765  -0.64500
O          O       0.59303   0.61605   0.47978  -0.69290
O          O       0.66379   0.41352   0.55402  -0.70964
O          O       0.38233   0.26134   0.68035  -0.63665
O          O       0.56117   0.30005   0.70409  -0.61677
O          O       0.96612   0.29086   0.86255  -0.63289
O          O       0.93862   0.38957   0.95634  -0.64694
O          O       0.37978   0.40654   0.02072  -0.69373
O          O       0.58157   0.33612   0.94687  -0.71106
O          O       0.26528   0.38678   0.17865  -0.63762
O          O       0.30194   0.56661   0.20240  -0.61179
O          O       0.29829   0.96965   0.36078  -0.63630
O          O       0.40598   0.93859   0.45229  -0.64471
O          O       0.40799   0.38368   0.51994  -0.69321
O          O       0.33621   0.58670   0.44611  -0.70991
O          O       0.61804   0.73812   0.31976  -0.63591
O          O       0.43877   0.70012   0.29586  -0.61719
O          O       0.03392   0.70897   0.13772  -0.63205
O          O       0.06131   0.61201   0.04335  -0.64626
O          O       0.62047   0.59362   0.97927  -0.69305
O          O       0.41863   0.66370   0.05318  -0.71131

