data_crystal

_audit_creation_method 'AiiDA-DDEC plugin'

_cell_length_a        10.85863
_cell_length_b        10.77839
_cell_length_c        11.97608

_cell_angle_alpha     69.73046
_cell_angle_beta     76.75960
_cell_angle_gamma     59.67028

_symmetry_space_group_name_Hall 'P 1'
_symmetry_space_group_name_H-M  'P 1'

loop_
_symmetry_equiv_pos_as_xyz
 'x,y,z'

loop_
_atom_site_label
_atom_site_type_symbol
_atom_site_fract_x
_atom_site_fract_y
_atom_site_fract_z
_atom_site_charge
Ho         Ho      0.54202   0.98866   0.16378   2.05619
Ho         Ho      0.46003   0.00858   0.84165   2.05476
Cu         Cu      0.00048  -0.00111   0.00062   0.70776
Cu         Cu     -0.00074  -0.00083   0.50109   0.71134
H          H       0.02808   0.25743   0.52155   0.11184
H          H       0.91582   0.53806   0.42783   0.12810
H          H       0.67255   0.48891   0.22440   0.13237
H          H       0.78341   0.21259   0.33364   0.10192
H          H       0.98092   0.73187   0.18409   0.10705
H          H       0.12879   0.45039   0.23257   0.12918
H          H       0.41830   0.51112   0.93303   0.13485
H          H       0.25681   0.78833   0.89007   0.10154
H          H       0.97254   0.73974   0.47972   0.11088
H          H       0.08580   0.45914   0.57273   0.12841
H          H       0.32880   0.50846   0.77600   0.13198
H          H       0.21673   0.78503   0.66802   0.10243
H          H       0.01997   0.26668   0.81660   0.10633
H          H       0.87130   0.54804   0.76850   0.12936
H          H       0.58258   0.48479   0.06838   0.13300
H          H       0.74521   0.20784   0.11022   0.10172
C          C       0.17870   0.97121   0.28231   0.00418
C          C       0.17588   0.98247   0.16281  -0.01340
C          C       0.28130   0.95596   0.35769   0.63181
C          C       0.26686  -0.00080   0.05351   0.62535
C          C       0.94766   0.31415   0.45639   0.08655
C          C       0.88697   0.46805   0.40354  -0.14387
C          C       0.78833   0.53199   0.31732   0.03797
C          C       0.74972   0.44024   0.29069  -0.13081
C          C       0.81120   0.28875   0.34943   0.09299
C          C       0.72069   0.69538   0.25242   0.55666
C          C       0.07746   0.67825   0.13011   0.08362
C          C       0.15929   0.52361   0.15703  -0.13395
C          C       0.28492   0.46127   0.08687   0.03331
C          C       0.32096   0.55654   0.98866  -0.13296
C          C       0.23237   0.71003   0.96517   0.09881
C          C       0.37992   0.29542   0.12038   0.56118
C          C       0.81994   0.02652   0.72060   0.00383
C          C       0.82397   0.01510   0.84004  -0.01491
C          C       0.71698   0.04293   0.64446   0.62841
C          C       0.73455  -0.00228   0.95042   0.62091
C          C       0.05299   0.68321   0.54488   0.08715
C          C       0.11425   0.52915   0.59741  -0.14387
C          C       0.21295   0.46516   0.68365   0.03709
C          C       0.25119   0.55730   0.71007  -0.13158
C          C       0.18912   0.70893   0.65186   0.09295
C          C       0.28174   0.30156   0.74875   0.55838
C          C       0.92324   0.31995   0.87057   0.08635
C          C       0.84087   0.47453   0.84390  -0.13513
C          C       0.71530   0.53618   0.91442   0.03238
C          C       0.67974   0.44021   0.01236  -0.13023
C          C       0.76886   0.28686   0.03544   0.09715
C          C       0.61981   0.70199   0.88249   0.56226
N          N       0.05358   0.97326   0.33632  -0.20372
N          N       0.97581   0.98283   0.25878  -0.05427
N          N       0.04996   0.98837   0.15382  -0.19268
N          N       0.91010   0.22672   0.42923  -0.21800
N          N       0.11442   0.76967   0.03569  -0.22432
N          N       0.94458   0.02532   0.66585  -0.20614
N          N       0.02295   0.01623   0.74261  -0.05242
N          N       0.94986   0.00998   0.84795  -0.19219
N          N       0.08981   0.77102   0.57237  -0.22001
N          N       0.88698   0.22798   0.96487  -0.22489
O          O       0.23353   0.97741   0.45854  -0.53970
O          O       0.41179   0.91540   0.31578  -0.70305
O          O       0.38456  -0.00001   0.05511  -0.72394
O          O       0.22832   0.01513   0.95474  -0.62439
O          O       0.72973   0.78819   0.28970  -0.62460
O          O       0.65244   0.73622   0.16180  -0.61167
O          O       0.50551   0.24152   0.06901  -0.63227
O          O       0.33375   0.21212   0.20089  -0.61620
O          O       0.76567   0.02253   0.54317  -0.54011
O          O       0.58663   0.08299   0.68575  -0.69615
O          O       0.61729   0.99577   0.94977  -0.72254
O          O       0.77387   0.98246   0.04865  -0.62117
O          O       0.27510   0.20750   0.71160  -0.61777
O          O       0.34868   0.26238   0.83996  -0.61867
O          O       0.49499   0.75498   0.93495  -0.62835
O          O       0.66471   0.78661   0.80197  -0.62036

