data_crystal

_audit_creation_method 'AiiDA-DDEC plugin'

_cell_length_a         8.63969
_cell_length_b        12.24308
_cell_length_c        12.24344

_cell_angle_alpha     73.20391
_cell_angle_beta     74.76329
_cell_angle_gamma     74.76332

_symmetry_space_group_name_Hall 'P 1'
_symmetry_space_group_name_H-M  'P 1'

loop_
_symmetry_equiv_pos_as_xyz
 'x,y,z'

loop_
_atom_site_label
_atom_site_type_symbol
_atom_site_fract_x
_atom_site_fract_y
_atom_site_fract_z
_atom_site_charge
Mn         Mn      0.75001   0.57865   0.42135   0.97894
Mn         Mn      0.25000   0.42135   0.57865   0.97895
H          H       0.31937   0.33526   0.32824   0.10832
H          H       0.32423   0.24020   0.17138   0.10496
H          H       0.54715   0.25364   0.99481   0.11034
H          H       0.75848   0.45329   0.13422   0.10328
H          H       0.65631   0.37636   0.82463   0.11686
H          H       0.88464   0.39764   0.65317   0.09748
H          H       0.21189   0.36942   0.85807   0.09192
H          H       0.99512   0.35136   0.03897   0.11982
H          H       0.18064   0.67176   0.66473   0.10842
H          H       0.17578   0.82862   0.75980   0.10504
H          H       0.95286   0.00520   0.74636   0.11035
H          H       0.74154   0.86578   0.54671   0.10319
H          H       0.84370   0.17538   0.62364   0.11706
H          H       0.61536   0.34684   0.60235   0.09751
H          H       0.28812   0.14193   0.63058   0.09185
H          H       0.50490   0.96103   0.64864   0.11982
H          H       0.68064   0.66474   0.67176   0.10841
H          H       0.67578   0.75980   0.82862   0.10507
H          H       0.45286   0.74636   0.00519   0.11037
H          H       0.24153   0.54671   0.86578   0.10320
H          H       0.34370   0.62364   0.17537   0.11705
H          H       0.11537   0.60235   0.34683   0.09746
H          H       0.78812   0.63058   0.14193   0.09179
H          H       0.00489   0.64864   0.96103   0.11979
H          H       0.81937   0.32824   0.33526   0.10828
H          H       0.82423   0.17138   0.24020   0.10492
H          H       0.04715   0.99480   0.25364   0.11034
H          H       0.25847   0.13422   0.45328   0.10326
H          H       0.15631   0.82462   0.37636   0.11686
H          H       0.38465   0.65316   0.39765   0.09740
H          H       0.71189   0.85807   0.36942   0.09205
H          H       0.49511   0.03897   0.35136   0.11994
C          C       0.52883   0.46322   0.33073   0.57953
C          C       0.53770   0.40045   0.23953  -0.04444
C          C       0.41551   0.33984   0.25031  -0.09149
C          C       0.41922   0.28754   0.16209  -0.09333
C          C       0.54452   0.29528   0.06290  -0.12271
C          C       0.67001   0.35394   0.05168   0.04856
C          C       0.66458   0.40608   0.14104  -0.14288
C          C       0.80466   0.36164   0.94813   0.10721
C          C       0.77789   0.37232   0.83703  -0.18498
C          C       0.90545   0.38395   0.74048   0.09266
C          C       0.08677   0.37036   0.85493   0.08422
C          C       0.96492   0.36076   0.95541  -0.19330
C          C       0.97118   0.66927   0.53678   0.57938
C          C       0.96231   0.76047   0.59955  -0.04424
C          C       0.08450   0.74968   0.66016  -0.09151
C          C       0.08079   0.83791   0.71246  -0.09320
C          C       0.95549   0.93710   0.70472  -0.12259
C          C       0.83000   0.94832   0.64606   0.04855
C          C       0.83543   0.85896   0.59392  -0.14309
C          C       0.69535   0.05187   0.63836   0.10718
C          C       0.72211   0.16297   0.62768  -0.18491
C          C       0.59456   0.25952   0.61605   0.09264
C          C       0.41323   0.14507   0.62964   0.08414
C          C       0.53509   0.04459   0.63923  -0.19332
C          C       0.47118   0.53678   0.66927   0.57949
C          C       0.46231   0.59955   0.76047  -0.04441
C          C       0.58450   0.66016   0.74968  -0.09144
C          C       0.58079   0.71246   0.83791  -0.09322
C          C       0.45548   0.70472   0.93710  -0.12269
C          C       0.33000   0.64606   0.94831   0.04853
C          C       0.33543   0.59392   0.85896  -0.14302
C          C       0.19535   0.63836   0.05187   0.10718
C          C       0.22211   0.62768   0.16296  -0.18497
C          C       0.09456   0.61605   0.25952   0.09293
C          C       0.91324   0.62964   0.14507   0.08412
C          C       0.03509   0.63924   0.04459  -0.19329
C          C       0.02883   0.33073   0.46322   0.57938
C          C       0.03770   0.23953   0.40045  -0.04422
C          C       0.91551   0.25032   0.33984  -0.09151
C          C       0.91922   0.16209   0.28754  -0.09325
C          C       0.04452   0.06290   0.29528  -0.12260
C          C       0.17001   0.05168   0.35394   0.04848
C          C       0.16458   0.14104   0.40608  -0.14297
C          C       0.30466   0.94813   0.36164   0.10725
C          C       0.27790   0.83703   0.37232  -0.18497
C          C       0.40545   0.74048   0.38395   0.09262
C          C       0.58678   0.85493   0.37036   0.08421
C          C       0.46492   0.95541   0.36076  -0.19339
N          N       0.05920   0.38275   0.74802  -0.25132
N          N       0.44081   0.25199   0.61724  -0.25157
N          N       0.94081   0.61725   0.25198  -0.25160
N          N       0.55920   0.74801   0.38275  -0.25143
O          O       0.64779   0.51267   0.31709  -0.57172
O          O       0.40241   0.46687   0.41201  -0.55851
O          O       0.85222   0.68291   0.48733  -0.57186
O          O       0.09760   0.58799   0.53313  -0.55827
O          O       0.35222   0.48733   0.68291  -0.57185
O          O       0.59760   0.53313   0.58799  -0.55837
O          O       0.14779   0.31709   0.51267  -0.57170
O          O       0.90240   0.41201   0.46687  -0.55841

