data_crystal

_audit_creation_method 'AiiDA-DDEC plugin'

_cell_length_a         6.73156
_cell_length_b        10.03193
_cell_length_c        15.53858

_cell_angle_alpha     91.21077
_cell_angle_beta     90.02118
_cell_angle_gamma     89.99320

_symmetry_space_group_name_Hall 'P 1'
_symmetry_space_group_name_H-M  'P 1'

loop_
_symmetry_equiv_pos_as_xyz
 'x,y,z'

loop_
_atom_site_label
_atom_site_type_symbol
_atom_site_fract_x
_atom_site_fract_y
_atom_site_fract_z
_atom_site_charge
Mn         Mn      0.75172   0.12032   0.18775   0.99743
Mn         Mn      0.24950   0.36572   0.68718   1.01486
Mn         Mn      0.24865   0.87552   0.81409   0.99451
Mn         Mn      0.75100   0.63131   0.31319   1.01069
Mn         Mn      0.50030   0.50064   0.50048   0.91261
Mn         Mn      0.50030  -0.00273   0.00106   0.79701
Mn         Mn      0.00065   0.49881   0.50018   0.90992
Mn         Mn      0.00033  -0.00295   0.00115   0.78595
H          H       0.12498   0.27494   0.31623   0.31751
H          H       0.87831   0.20683   0.82030   0.31101
H          H       0.62045   0.72722   0.68410   0.31741
H          H       0.37730   0.79205   0.18058   0.31261
H          H       0.87524   0.72478   0.68362   0.31814
H          H       0.12359   0.79167   0.18023   0.30988
H          H       0.37975   0.27313   0.31578   0.31704
H          H       0.62441   0.20621   0.82032   0.31360
H          H       0.74969   0.18157   0.02013   0.41720
H          H       0.25292   0.30010   0.51965   0.40779
H          H       0.25143   0.81228   0.98234   0.41989
H          H       0.75129   0.69974   0.47943   0.40854
C          C       0.25094   0.18962   0.20797   0.52198
C          C       0.75119   0.29001   0.71480   0.51655
C          C       0.74963   0.80777   0.79275   0.52186
C          C       0.24956   0.70880   0.28590   0.51512
S          S       0.75001   0.32065   0.35593   1.39633
S          S       0.24984   0.18355   0.85801   1.39774
S          S       0.24946   0.67882   0.64416   1.39576
S          S       0.75020   0.81109   0.14229   1.39803
N          N       0.34889   0.08472   0.09324  -0.04956
N          N       0.41804   0.14964   0.16486  -0.35903
N          N       0.65360   0.40048   0.60548  -0.06674
N          N       0.58441   0.33215   0.67311  -0.34658
N          N       0.84948   0.91052   0.90814  -0.05371
N          N       0.91747   0.84636   0.83595  -0.35631
N          N       0.15236   0.59883   0.39545  -0.06720
N          N       0.08284   0.66722   0.32780  -0.34920
N          N       0.65186   0.91050   0.90835  -0.05008
N          N       0.58262   0.84685   0.83631  -0.35702
N          N       0.34678   0.59844   0.39522  -0.06129
N          N       0.41616   0.66659   0.32761  -0.34724
N          N       0.15116   0.08454   0.09349  -0.05561
N          N       0.08315   0.15006   0.16518  -0.35712
N          N       0.84801   0.40017   0.60523  -0.06458
N          N       0.91771   0.33168   0.67279  -0.34952
N          N       0.25198   0.26405   0.28107  -0.63227
N          N       0.75137   0.21253   0.78456  -0.63288
N          N       0.74828   0.73527   0.71889  -0.63204
N          N       0.25008   0.78659   0.21626  -0.63341
O          O       0.56827   0.33263   0.41141  -0.64588
O          O       0.43625   0.16992   0.90964  -0.64110
O          O       0.06294   0.66704   0.59151  -0.64633
O          O       0.93120   0.81962   0.08680  -0.63712
O          O       0.43116   0.66746   0.58849  -0.64559
O          O       0.56383   0.82559   0.09068  -0.64000
O          O       0.93643   0.33262   0.40862  -0.64615
O          O       0.06892   0.17399   0.91348  -0.63858
O          O       0.74757   0.42590   0.28806  -0.64487
O          O       0.74766   0.18588   0.31195  -0.62353
O          O       0.74909   0.09409   0.04679  -0.74219
O          O       0.24275   0.07523   0.78816  -0.65884
O          O       0.25184   0.31557   0.81439  -0.62779
O          O       0.25156   0.38662   0.54933  -0.84882
O          O       0.25242   0.57272   0.71141  -0.64777
O          O       0.25228   0.81332   0.68853  -0.62202
O          O       0.25143   0.90003   0.95612  -0.74479
O          O       0.75746   0.91947   0.21205  -0.65965
O          O       0.74756   0.67908   0.18572  -0.62447
O          O       0.74900   0.61250   0.45073  -0.85009

