data_crystal

_audit_creation_method 'AiiDA-DDEC plugin'

_cell_length_a         9.46196
_cell_length_b         9.66364
_cell_length_c        12.71223

_cell_angle_alpha     87.25390
_cell_angle_beta     84.35297
_cell_angle_gamma     60.53873

_symmetry_space_group_name_Hall 'P 1'
_symmetry_space_group_name_H-M  'P 1'

loop_
_symmetry_equiv_pos_as_xyz
 'x,y,z'

loop_
_atom_site_label
_atom_site_type_symbol
_atom_site_fract_x
_atom_site_fract_y
_atom_site_fract_z
_atom_site_charge
Mn         Mn      0.65303   0.69302  -0.00149   1.10529
Mn         Mn      0.34585   0.30896   0.00153   1.10883
H          H       0.41869   0.25768   0.42596   0.12999
H          H       0.55300   0.24570   0.24664   0.13127
H          H       0.07204   0.74248   0.14160   0.11565
H          H       0.33407   0.74545   0.13562   0.10369
H          H       0.67807   0.10432   0.09746   0.11432
H          H       0.32332   0.25792   0.57454   0.12996
H          H       0.20097   0.24614   0.75390   0.13215
H          H       0.18693   0.74385   0.85801   0.11528
H          H       0.92255   0.74574   0.86352   0.10489
H          H       0.21712   0.10506   0.90267   0.11518
H          H       0.57949   0.74093   0.57292   0.12924
H          H       0.44598   0.75237   0.75238   0.13146
H          H       0.92927   0.25730   0.85793   0.11618
H          H       0.66669   0.25532   0.86399   0.10510
H          H       0.32219   0.89351   0.90249   0.11350
H          H       0.67955   0.74069   0.42665   0.12884
H          H       0.80180   0.75192   0.24720   0.13178
H          H       0.81236   0.25605   0.14245   0.11579
H          H       0.07624   0.25496   0.13663   0.10505
H          H       0.78499   0.89273   0.09756   0.11473
C          C       0.50484   0.14195   0.39221  -0.17064
C          C       0.57850   0.13933   0.29284   0.03095
C          C       0.07182   0.85534   0.14109  -0.13973
C          C       0.21909   0.85609   0.13665  -0.08703
C          C       0.46442   0.53538   0.94695   0.45767
C          C       0.35296   0.14224   0.60807  -0.17012
C          C       0.28189   0.13979   0.70746   0.02798
C          C       0.07347   0.85642   0.85860  -0.13972
C          C       0.92585   0.85660   0.86282  -0.08765
C          C      -0.00021   0.53639   0.05277   0.45682
C          C       0.49441   0.85653   0.60720  -0.17412
C          C       0.42100   0.85887   0.70650   0.03253
C          C       0.92897   0.14467   0.85859  -0.13991
C          C       0.78146   0.14454   0.86304  -0.08806
C          C       0.53552   0.46512   0.05308   0.45627
C          C       0.64904   0.85624   0.39260  -0.17375
C          C       0.72030   0.85842   0.29333   0.03150
C          C       0.92598   0.14357   0.14164  -0.13953
C          C       0.07327   0.14397   0.13731  -0.08623
C          C      -0.00030   0.46470   0.94714   0.45764
C          C       0.53813  -0.00061   0.44735   0.08072
C          C       0.76568  -0.00130   0.13770  -0.16305
C          C       0.92446  -0.00079   0.14139   0.09493
C          C       0.22142   0.00040   0.13212  -0.06674
C          C       0.37840   0.00244   0.11481   0.59630
C          C       0.46226  -0.00045   0.55270   0.08161
C          C       0.23526  -0.00042   0.86237  -0.16315
C          C       0.07579   0.00045   0.85862   0.09533
C          C       0.77823   0.00067   0.86777  -0.06523
C          C       0.62011   0.00087   0.88516   0.59656
N          N       0.68661  -0.00130   0.24452   0.14924
N          N       0.31443  -0.00073   0.75555   0.15046
O          O       0.51215   0.87028   0.10602  -0.57162
O          O       0.49815   0.63851   0.90482  -0.51022
O          O       0.37809   0.48524   0.90977  -0.50256
O          O       0.62129   0.86761   0.88931  -0.57381
O          O       0.86267   0.64006   0.09462  -0.50772
O          O       0.13649   0.48641   0.09006  -0.50229
O          O       0.48807   0.13494   0.89383  -0.57248
O          O       0.50241   0.36157   0.09516  -0.50993
O          O       0.62128   0.51599   0.09023  -0.50265
O          O       0.37351   0.13772   0.11083  -0.57439
O          O       0.13676   0.36057   0.90543  -0.50875
O          O       0.86296   0.51479   0.90994  -0.50363

