data_crystal

_audit_creation_method 'AiiDA-DDEC plugin'

_cell_length_a         6.75273
_cell_length_b        13.62080
_cell_length_c        13.61501

_cell_angle_alpha     98.27093
_cell_angle_beta     97.75256
_cell_angle_gamma     97.83228

_symmetry_space_group_name_Hall 'P 1'
_symmetry_space_group_name_H-M  'P 1'

loop_
_symmetry_equiv_pos_as_xyz
 'x,y,z'

loop_
_atom_site_label
_atom_site_type_symbol
_atom_site_fract_x
_atom_site_fract_y
_atom_site_fract_z
_atom_site_charge
Co         Co      0.00101   0.00181   0.00179   0.64285
Co         Co      0.49908  -0.00111   0.50094   0.64306
Co         Co      0.50078   0.50133   0.00058   0.64289
H          H       0.10001   0.01044   0.78090   0.09971
H          H       0.56383   0.00919   0.89927   0.08448
H          H       0.36791  -0.00046   0.72536   0.08883
H          H       0.90103   0.22080   0.99413   0.09967
H          H       0.43652   0.10285   0.99236   0.08478
H          H       0.63108   0.27665  -0.00125   0.09025
H          H       0.90166   0.99502   0.22080   0.09943
H          H       0.43659   0.99169   0.10248   0.08479
H          H       0.63021   0.99711   0.27609   0.08887
H          H       0.10021   0.78165   0.00893   0.10057
H          H       0.56381   0.89897   0.00895   0.08476
H          H       0.36953   0.72495   0.00161   0.08865
C          C       0.82870   0.00442   0.67359   0.10867
C          C       0.93679   0.00868   0.76926   0.04656
C          C       0.64011   0.00725   0.83426   0.04446
C          C       0.53196   0.00246   0.73870   0.07730
C          C       0.92270   0.00226   0.58270   0.25138
C          C       0.17091   0.32811   0.99600   0.11259
C          C       0.06352   0.23260   0.99357   0.04588
C          C       0.36003   0.16774   0.99360   0.04582
C          C       0.46738   0.26318   0.99674   0.07456
C          C       0.07688   0.41891  -0.00225   0.24885
C          C       0.17031   0.99474   0.32773   0.11205
C          C       0.06360   0.99316   0.23231   0.04437
C          C       0.35983   0.99256   0.16727   0.04448
C          C       0.46660   0.99518   0.26269   0.07651
C          C       0.07592   0.99653   0.41848   0.24797
C          C       0.83020   0.67398   0.00535   0.10974
C          C       0.93749   0.76970   0.00872   0.04452
C          C       0.64061   0.83420   0.00788   0.04471
C          C       0.53336   0.73861   0.00410   0.07454
C          C       0.92426   0.58319   0.00326   0.25112
N          N       0.62560   0.00121   0.65842  -0.18486
N          N       0.84263   0.00941   0.85032  -0.18401
N          N       0.79470  -0.00122   0.49591  -0.12600
N          N       0.12197   0.00251   0.59021  -0.16682
N          N       0.37359   0.34334  -0.00215  -0.18567
N          N       0.15792   0.15168   0.99287  -0.18415
N          N       0.20512   0.50564   0.00058  -0.12831
N          N       0.87764   0.41153   0.99741  -0.16695
N          N       0.37285   0.99609   0.34288  -0.18584
N          N       0.15789   0.99240   0.15134  -0.18211
N          N       0.20390  -0.00044   0.50526  -0.12909
N          N       0.87653   0.99591   0.41094  -0.16572
N          N       0.62733   0.65853   0.00294  -0.18341
N          N       0.84294   0.85055   0.00947  -0.18279
N          N       0.79594   0.49645   0.00015  -0.12665
N          N       0.12340   0.59055   0.00347  -0.16650
Cl         Cl      0.55599   0.16484   0.52612  -0.38096
Cl         Cl      0.44847   0.47526   0.83462  -0.38033
Cl         Cl      0.44694   0.83315   0.47474  -0.37924
Cl         Cl      0.55258   0.52679   0.16635  -0.38013
Cl         Cl      0.76921   0.08313   0.08314  -0.47895
Cl         Cl      0.22970   0.91918   0.91837  -0.48116

