data_crystal

_audit_creation_method 'AiiDA-DDEC plugin'

_cell_length_a        10.39773
_cell_length_b        10.85919
_cell_length_c        15.48999

_cell_angle_alpha     90.06561
_cell_angle_beta     99.07414
_cell_angle_gamma     89.98249

_symmetry_space_group_name_Hall 'P 1'
_symmetry_space_group_name_H-M  'P 1'

loop_
_symmetry_equiv_pos_as_xyz
 'x,y,z'

loop_
_atom_site_label
_atom_site_type_symbol
_atom_site_fract_x
_atom_site_fract_y
_atom_site_fract_z
_atom_site_charge
In         In      0.74250   0.21671   0.06248   1.33977
In         In      0.25736   0.71569   0.43857   1.34744
In         In      0.25738   0.78288   0.93762   1.34008
In         In      0.74246   0.28363   0.56299   1.34780
Co         Co      0.49994  -0.00011   0.00011   1.25689
Co         Co      0.50007   0.49915   0.49979   1.26631
H          H       0.51288   0.86452   0.25669   0.14409
H          H       0.92211   0.90381   0.24189   0.14583
H          H       0.79994   0.67722   0.44221   0.14844
H          H       0.48592   0.36582   0.24349   0.14423
H          H       0.07668   0.40339   0.25870   0.14518
H          H       0.19944   0.17632   0.05851   0.14645
H          H       0.48662   0.13521   0.74319   0.14344
H          H       0.07780   0.09774   0.75960   0.14630
H          H       0.19917   0.32274   0.55810   0.14862
H          H       0.51367   0.63469   0.75635   0.14396
H          H       0.92288   0.59667   0.74108   0.14563
H          H       0.80040   0.82362   0.94146   0.14679
C          C       0.68414   0.96819   0.16031   0.59137
C          C       0.61431   0.84435   0.28194  -0.06631
C          C       0.84492   0.86575   0.27361  -0.06888
C          C       0.01428   0.76024   0.38007   0.54972
C          C       0.53875   0.71552   0.39719   0.58639
C          C       0.71429   0.89148   0.24095  -0.03224
C          C       0.64579   0.76901   0.35551  -0.03678
C          C       0.77616   0.73913   0.38686  -0.06092
C          C       0.87567   0.78838   0.34619  -0.02789
C          C       0.31515   0.46932   0.33979   0.59330
C          C       0.38466   0.34511   0.21821  -0.06621
C          C       0.15404   0.36550   0.22694  -0.06880
C          C       0.98558   0.25770   0.12075   0.54770
C          C       0.46053   0.21686   0.10237   0.58819
C          C       0.28452   0.39213   0.25931  -0.03325
C          C       0.35351   0.26932   0.14474  -0.03682
C          C       0.22333   0.23860   0.11371  -0.06242
C          C       0.12377   0.28731   0.15461  -0.02593
C          C       0.31576   0.03114   0.83974   0.59281
C          C       0.38516   0.15552   0.71821  -0.06742
C          C       0.15479   0.13530   0.72743  -0.07051
C          C       0.98544   0.24226   0.62193   0.54829
C          C       0.46052   0.28402   0.60282   0.58664
C          C       0.28534   0.10845   0.75938  -0.02977
C          C       0.35350   0.23109   0.64477  -0.03698
C          C       0.22319   0.26136   0.61372  -0.05900
C          C       0.12394   0.21312   0.65513  -0.02961
C          C       0.68441   0.53103   0.65997   0.59095
C          C       0.61498   0.65530   0.78155  -0.06645
C          C       0.84553   0.63475   0.77278  -0.06894
C          C       0.01424   0.74228   0.87896   0.54843
C          C       0.53942   0.78305   0.89773   0.58902
C          C       0.71500   0.60833   0.74036  -0.03395
C          C       0.64631   0.73076   0.85517  -0.03586
C          C       0.77649   0.76150   0.88616  -0.06352
C          C       0.87597   0.71279   0.84514  -0.02589
Br         Br      0.66521   0.36542   0.93645  -0.35045
Br         Br      0.33592   0.86360   0.56486  -0.32979
Br         Br      0.33481   0.63455   0.06379  -0.35073
Br         Br      0.66488   0.13368   0.43773  -0.32922
O          O       0.10460   0.80669   0.34193  -0.51748
O          O       0.57795   0.64856   0.46488  -0.48011
O          O       0.77279   0.03770   0.14109  -0.47714
O          O       0.04369   0.69095   0.44709  -0.50783
O          O       0.42159   0.73882   0.36384  -0.52374
O          O       0.56810   0.95252   0.11807  -0.45921
O          O       0.64349   0.07253   0.98169  -0.51546
O          O       0.89554   0.30357   0.15976  -0.52075
O          O       0.42146   0.14926   0.03496  -0.48326
O          O       0.22675   0.53888   0.35960  -0.47692
O          O       0.95601   0.18930   0.05323  -0.50938
O          O       0.57766   0.24155   0.13495  -0.52700
O          O       0.43170   0.45431   0.38123  -0.46045
O          O       0.35628   0.57059   0.51949  -0.55488
O          O       0.89561   0.19893   0.66208  -0.51619
O          O       0.42164   0.34991   0.53455  -0.47782
O          O       0.22748   0.96064   0.85835  -0.47864
O          O       0.95561   0.30858   0.55351  -0.50637
O          O       0.57766   0.26115   0.63653  -0.52476
O          O       0.43148   0.04748   0.88226  -0.45914
O          O       0.35649   0.92727   0.01844  -0.51488
O          O       0.10436   0.69614   0.84018  -0.52106
O          O       0.57846   0.85055   0.96518  -0.48394
O          O       0.77320   0.46199   0.64012  -0.47702
O          O       0.04383   0.81089   0.94637  -0.51002
O          O       0.42231   0.75824   0.86524  -0.52770
O          O       0.56774   0.54506   0.61850  -0.45998
O          O       0.64345   0.42632   0.48036  -0.55438

