data_crystal

_audit_creation_method 'AiiDA-DDEC plugin'

_cell_length_a         6.81243
_cell_length_b        11.56307
_cell_length_c        16.86842

_cell_angle_alpha     92.46253
_cell_angle_beta     89.98369
_cell_angle_gamma     89.96237

_symmetry_space_group_name_Hall 'P 1'
_symmetry_space_group_name_H-M  'P 1'

loop_
_symmetry_equiv_pos_as_xyz
 'x,y,z'

loop_
_atom_site_label
_atom_site_type_symbol
_atom_site_fract_x
_atom_site_fract_y
_atom_site_fract_z
_atom_site_charge
H          H       0.28522   0.13199   0.02258   0.11994
H          H       0.72842   0.00149   0.09857   0.10042
H          H       0.33761   0.39143   0.10607   0.11393
H          H       0.85739   0.54409   0.00949   0.11733
H          H       0.78656   0.36767   0.48046   0.12016
H          H       0.23004   0.49431   0.40109   0.09931
H          H       0.84157   0.10807   0.39284   0.11461
H          H       0.35750   0.95420   0.49240   0.11841
H          H       0.71480   0.86801   0.97742   0.11975
H          H       0.27159  -0.00149   0.90143   0.10062
H          H       0.66240   0.60857   0.89393   0.11411
H          H       0.14263   0.45591   0.99051   0.11719
H          H       0.21346   0.63233   0.51954   0.12011
H          H       0.76998   0.50569   0.59891   0.09946
H          H       0.15845   0.89193   0.60716   0.11468
H          H       0.64252   0.04580   0.50760   0.11787
Pb         Pb      0.96267   0.34075   0.25818   1.12634
Pb         Pb      0.46367   0.15756   0.24154   1.12612
Pb         Pb      0.03735   0.65925   0.74182   1.12616
Pb         Pb      0.53635   0.84245   0.75846   1.12599
C          C       0.01362   0.15648   0.13806   0.58184
C          C       0.00835   0.07359   0.06793  -0.02941
C          C       0.16220   0.07327   0.01246  -0.09573
C          C       0.84629   0.00020   0.05509  -0.08612
C          C       0.72648   0.42349   0.13248   0.55508
C          C       0.60931   0.46336   0.06432  -0.03309
C          C       0.40715   0.43890   0.05948  -0.09701
C          C       0.70119   0.52515   0.00485  -0.09184
C          C       0.51655   0.34128   0.36285   0.57918
C          C       0.50991   0.42413   0.43311  -0.02617
C          C       0.66283   0.42642   0.48898  -0.09579
C          C       0.34732   0.49763   0.44476  -0.08838
C          C       0.22942   0.07409   0.36757   0.55536
C          C       0.11125   0.03523   0.43578  -0.03287
C          C       0.90920   0.06067   0.43990  -0.09822
C          C       0.20128   0.97390   0.49594  -0.09302
C          C       0.98639   0.84352   0.86194   0.58182
C          C       0.99166   0.92641   0.93207  -0.02945
C          C       0.83781   0.92673   0.98754  -0.09585
C          C       0.15372  -0.00019   0.94491  -0.08604
C          C       0.27354   0.57651   0.86752   0.55496
C          C       0.39071   0.53664   0.93568  -0.03301
C          C       0.59286   0.56110   0.94052  -0.09711
C          C       0.29882   0.47486   0.99515  -0.09207
C          C       0.48347   0.65872   0.63715   0.57900
C          C       0.49010   0.57587   0.56689  -0.02622
C          C       0.33719   0.57358   0.51102  -0.09594
C          C       0.65269   0.50237   0.55524  -0.08828
C          C       0.77060   0.92591   0.63243   0.55558
C          C       0.88877   0.96477   0.56422  -0.03288
C          C       0.09082   0.93933   0.56010  -0.09811
C          C       0.79874   0.02610   0.50406  -0.09256
O          O       0.85617   0.17517   0.17793  -0.56562
O          O       0.17131   0.21292   0.15456  -0.58126
O          O       0.63831   0.37853   0.19107  -0.58881
O          O       0.91355   0.43516   0.13149  -0.54416
O          O       0.35984   0.32405   0.32232  -0.56383
O          O       0.67451   0.28483   0.34628  -0.58266
O          O       0.14193   0.11933   0.30885  -0.59013
O          O       0.41630   0.06165   0.36845  -0.54363
O          O       0.14385   0.82483   0.82207  -0.56523
O          O       0.82870   0.78708   0.84544  -0.58160
O          O       0.36171   0.62147   0.80893  -0.58849
O          O       0.08646   0.56484   0.86851  -0.54445
O          O       0.64018   0.67595   0.67768  -0.56334
O          O       0.32551   0.71517   0.65372  -0.58288
O          O       0.85809   0.88067   0.69115  -0.58998
O          O       0.58371   0.93835   0.63155  -0.54407

