data_crystal

_audit_creation_method 'AiiDA-DDEC plugin'

_cell_length_a         4.57981
_cell_length_b        13.94943
_cell_length_c        14.25261

_cell_angle_alpha     96.04643
_cell_angle_beta     81.50915
_cell_angle_gamma     100.29190

_symmetry_space_group_name_Hall 'P 1'
_symmetry_space_group_name_H-M  'P 1'

loop_
_symmetry_equiv_pos_as_xyz
 'x,y,z'

loop_
_atom_site_label
_atom_site_type_symbol
_atom_site_fract_x
_atom_site_fract_y
_atom_site_fract_z
_atom_site_charge
Zn         Zn      0.28672   0.06490   0.49777   0.92692
Zn         Zn      0.71327   0.93509   0.50223   0.92689
H          H       0.80678   0.84776   0.28505   0.11894
H          H       0.54625   0.70344   0.18955   0.10599
H          H       0.05336   0.51758   0.29502   0.10976
H          H       0.32635   0.66201   0.38382   0.11864
H          H       0.53624   0.45812   0.24999   0.10333
H          H       0.40378   0.52098   0.16732   0.05035
H          H       0.71123   0.33003   0.02948   0.10388
H          H       0.40046   0.35513   0.11103   0.07045
H          H       0.09477   0.38896   0.20669   0.07902
H          H       0.20611   0.28428   0.32678   0.11655
H          H       0.43454   0.07545   0.27127   0.11947
H          H       0.33766   0.17590   0.14650   0.11000
H          H       0.90168   0.59118   0.05600   0.09009
H          H       0.66527   0.49973   0.99262   0.04165
H          H       0.19321   0.15224   0.71495   0.11907
H          H       0.45373   0.29656   0.81045   0.10602
H          H       0.94663   0.48241   0.70498   0.10965
H          H       0.67364   0.33798   0.61618   0.11867
H          H       0.46375   0.54188   0.75001   0.10315
H          H       0.59621   0.47902   0.83268   0.05024
H          H       0.28876   0.66996   0.97052   0.10386
H          H       0.59953   0.64487   0.88897   0.07037
H          H       0.90522   0.61104   0.79331   0.07918
H          H       0.79388   0.71572   0.67322   0.11662
H          H       0.56545   0.92455   0.72873   0.11928
H          H       0.66233   0.82409   0.85350   0.10987
H          H       0.09831   0.40882   0.94401   0.09022
H          H       0.33471   0.50026   0.00739   0.04160
C          C       0.23130   0.84681   0.39612   0.58781
C          C       0.08551   0.76392   0.33660  -0.06820
C          C       0.85951   0.77498   0.28562  -0.07528
C          C       0.70200   0.69340   0.23675  -0.13611
C          C       0.77868   0.60061   0.23961   0.08906
C          C       0.00606   0.59050   0.29046  -0.16320
C          C       0.17019   0.67103   0.33656  -0.06905
C          C       0.61217   0.50887   0.19394  -0.10715
C          C       0.64727   0.35808   0.10337  -0.10841
C          C       0.71260   0.29122   0.17100   0.08637
C          C       0.96118   0.31807   0.21830  -0.18012
C          C       0.03389   0.25800   0.28136  -0.06588
C          C       0.83469   0.17065   0.30088  -0.07261
C          C       0.58273   0.14302   0.25424  -0.07218
C          C       0.51636   0.20270   0.18950  -0.13317
C          C       0.88946   0.11225   0.37518   0.59419
C          C       0.86769   0.51278   0.03309  -0.08524
C          C       0.76869   0.15318   0.60388   0.58776
C          C       0.91448   0.23608   0.66340  -0.06805
C          C       0.14048   0.22502   0.71438  -0.07534
C          C       0.29799   0.30659   0.76325  -0.13616
C          C       0.22131   0.39939   0.76039   0.08909
C          C      -0.00607   0.40949   0.70954  -0.16318
C          C       0.82980   0.32896   0.66344  -0.06918
C          C       0.38781   0.49112   0.80606  -0.10703
C          C       0.35272   0.64192   0.89663  -0.10848
C          C       0.28739   0.70878   0.82900   0.08642
C          C       0.03881   0.68193   0.78170  -0.18004
C          C       0.96610   0.74199   0.71864  -0.06589
C          C       0.16530   0.82934   0.69912  -0.07253
C          C       0.41726   0.85698   0.74576  -0.07214
C          C       0.48363   0.79729   0.81050  -0.13331
C          C       0.11053   0.88775   0.62482   0.59423
C          C       0.13230   0.48721   0.96691  -0.08518
N          N       0.80164   0.45951   0.11947  -0.12486
N          N       0.19835   0.54048   0.88053  -0.12485
O          O       0.12882   0.92827   0.40673  -0.58819
O          O       0.44485   0.82953   0.43662  -0.49277
O          O       0.12857   0.14197   0.41284  -0.49540
O          O       0.68868   0.03799   0.39876  -0.58463
O          O       0.87117   0.07172   0.59327  -0.58807
O          O       0.55514   0.17047   0.56338  -0.49276
O          O       0.87141   0.85802   0.58716  -0.49520
O          O       0.31131   0.96201   0.60124  -0.58483

