data_crystal

_audit_creation_method 'AiiDA-DDEC plugin'

_cell_length_a         8.76949
_cell_length_b        11.43522
_cell_length_c        13.42146

_cell_angle_alpha     64.25730
_cell_angle_beta     84.32850
_cell_angle_gamma     74.52179

_symmetry_space_group_name_Hall 'P 1'
_symmetry_space_group_name_H-M  'P 1'

loop_
_symmetry_equiv_pos_as_xyz
 'x,y,z'

loop_
_atom_site_label
_atom_site_type_symbol
_atom_site_fract_x
_atom_site_fract_y
_atom_site_fract_z
_atom_site_charge
Ca         Ca      0.25583   0.15892   0.67647   1.48955
Ca         Ca      0.74417   0.84109   0.32352   1.48955
H          H       0.68622   0.93646   0.52386   0.36249
H          H       0.42600   0.64018   0.52451   0.13117
H          H       0.36799   0.38573   0.86538   0.12517
H          H       0.58814   0.71292   0.78012   0.12921
H          H       0.81788   0.53762   0.52413   0.36362
H          H       0.08125   0.83130   0.52469   0.13256
H          H       0.13828   0.74608   0.86521   0.12604
H          H       0.91585   0.50512   0.78033   0.12766
H          H       0.31378   0.06355   0.47614   0.36239
H          H       0.57400   0.35983   0.47549   0.13110
H          H       0.63201   0.61428   0.13462   0.12540
H          H       0.41186   0.28709   0.21988   0.12910
H          H       0.18211   0.46239   0.47586   0.36353
H          H       0.91875   0.16871   0.47530   0.13237
H          H       0.86171   0.25393   0.13479   0.12603
H          H       0.08415   0.49489   0.21967   0.12787
C          C       0.44146   0.61368   0.61161  -0.07277
C          C       0.40977   0.46998   0.80380  -0.11496
C          C       0.51315   0.68797   0.64376  -0.06168
C          C       0.39018   0.50438   0.69164  -0.03742
C          C       0.31167   0.42726   0.65498   0.59787
C          C       0.53255   0.65451   0.75602  -0.12187
C          C       0.49436   0.51334   0.95102  -0.09971
C          C       0.47976   0.54539   0.83731   0.12723
C          C       0.57073   0.79966   0.55636   0.60850
C          C       0.06532   0.77089   0.61169  -0.07205
C          C       0.09666   0.72303   0.80376  -0.11303
C          C       0.99252   0.66516   0.64392  -0.05885
C          C       0.11699   0.80005   0.69160  -0.03953
C          C       0.19427   0.91446   0.65459   0.59796
C          C       0.97272   0.58686   0.75607  -0.11825
C          C       0.00750   0.53492   0.95107  -0.09990
C          C       0.02534   0.61493   0.83732   0.12362
C          C       0.93176   0.64226   0.55684   0.61043
C          C       0.55853   0.38633   0.38838  -0.07275
C          C       0.59023   0.53003   0.19619  -0.11483
C          C       0.48685   0.31204   0.35623  -0.06183
C          C       0.60982   0.49563   0.30836  -0.03743
C          C       0.68833   0.57275   0.34501   0.59783
C          C       0.46745   0.34550   0.24398  -0.12187
C          C       0.50564   0.48667   0.04897  -0.09971
C          C       0.52024   0.45462   0.16268   0.12718
C          C       0.42927   0.20034   0.44364   0.60876
C          C       0.93468   0.22911   0.38831  -0.07209
C          C       0.90334   0.27698   0.19624  -0.11314
C          C       0.00747   0.33485   0.35608  -0.05886
C          C       0.88301   0.19996   0.30840  -0.03950
C          C       0.80573   0.08555   0.34540   0.59805
C          C       0.02727   0.41315   0.24393  -0.11822
C          C       0.99250   0.46509   0.04892  -0.10011
C          C       0.97466   0.38508   0.16268   0.12378
C          C       0.06824   0.35775   0.44316   0.61024
O          O       0.29024   0.31461   0.72805  -0.68666
O          O       0.27308   0.48000   0.55320  -0.55447
O          O       0.63568   0.86735   0.59029  -0.46110
O          O       0.56113   0.82366   0.45608  -0.61837
O          O       0.21983   0.95167   0.72772  -0.68657
O          O       0.22737   0.96652   0.55283  -0.55220
O          O       0.87164   0.53799   0.59070  -0.46371
O          O       0.93290   0.72254   0.45666  -0.61977
O          O       0.70976   0.68540   0.27194  -0.68639
O          O       0.72692   0.52001   0.44680  -0.55463
O          O       0.36431   0.13265   0.40970  -0.46120
O          O       0.43887   0.17635   0.54392  -0.61860
O          O       0.78016   0.04834   0.27228  -0.68660
O          O       0.77263   0.03349   0.44716  -0.55245
O          O       0.12836   0.46202   0.40929  -0.46325
O          O       0.06710   0.27747   0.54334  -0.61991

