data_crystal

_audit_creation_method 'AiiDA-DDEC plugin'

_cell_length_a         4.56508
_cell_length_b        11.41858
_cell_length_c        12.64952

_cell_angle_alpha     88.82734
_cell_angle_beta     79.46931
_cell_angle_gamma     84.60648

_symmetry_space_group_name_Hall 'P 1'
_symmetry_space_group_name_H-M  'P 1'

loop_
_symmetry_equiv_pos_as_xyz
 'x,y,z'

loop_
_atom_site_label
_atom_site_type_symbol
_atom_site_fract_x
_atom_site_fract_y
_atom_site_fract_z
_atom_site_charge
Cu         Cu      0.83528   0.78167   0.23000   0.85110
Cu         Cu      0.06721   0.28169   0.77007   0.84996
H          H       0.28700   0.50578   0.66608   0.10500
H          H       0.22827   0.61960   0.49569   0.12711
H          H       0.55078   0.39773   0.45464   0.13013
H          H       0.65662   0.28401   0.61721   0.09895
H          H       0.58069   0.11144   0.79019   0.10034
H          H       0.73869   0.96686   0.92350   0.13280
H          H       0.88452   0.04991   0.12588   0.12855
H          H       0.77255   0.20647   0.99062   0.10162
H          H       0.95538   0.00520   0.33334   0.10601
H          H       0.72594   0.11979   0.50266   0.12688
H          H       0.00392   0.89932   0.54584   0.12967
H          H       0.27234   0.78498   0.38408   0.10030
H          H       0.37135   0.61112   0.20921   0.10150
H          H       0.66005   0.46616   0.07592   0.13254
H          H       0.00484   0.54995   0.87585   0.12888
H          H       0.76149   0.70700   0.01040   0.10140
C          C       0.13911   0.48220   0.61366   0.07555
C          C       0.08549   0.55058   0.52500  -0.13047
C          C       0.86484   0.52515   0.46944  -0.00692
C          C       0.70458   0.42718   0.50235  -0.13194
C          C       0.77416   0.36081   0.59006   0.09548
C          C       0.80163   0.59732   0.37473   0.54093
C          C       0.43472   0.09870   0.86688   0.09464
C          C       0.52948   0.02162   0.94433  -0.12527
C          C       0.32737   0.00445   0.04052  -0.01154
C          C       0.04792   0.06683   0.05473  -0.13368
C          C       0.97083   0.14509   0.97590   0.07714
C          C       0.39445   0.91843   0.12602   0.56610
C          C       0.75358   0.98227   0.38581   0.07464
C          C       0.61124   0.05111   0.47393  -0.13161
C          C       0.33415   0.02614   0.52998  -0.00679
C          C       0.20633   0.92831   0.49778  -0.13105
C          C       0.36362   0.86153   0.41063   0.09389
C          C       0.17633   0.09760   0.62505   0.54491
C          C       0.30087   0.59842   0.13300   0.09404
C          C       0.47154   0.52129   0.05562  -0.12479
C          C       0.36499   0.50466   0.95988  -0.01555
C          C       0.09934   0.56718   0.94615  -0.13056
C          C       0.94515   0.64550   0.02486   0.07697
C          C       0.51673   0.41868   0.87461   0.56773
N          N       0.97885   0.38938   0.64643  -0.23187
N          N       0.16631   0.16098   0.88271  -0.24318
N          N       0.62568   0.88953   0.35379  -0.23111
N          N       0.04836   0.66111   0.11756  -0.24418
O          O       0.96938   0.68297   0.34880  -0.54419
O          O       0.59641   0.57204   0.32822  -0.52966
O          O       0.65506   0.86145   0.10941  -0.55290
O          O       0.19120   0.90737   0.20673  -0.58375
O          O       0.31820   0.18306   0.65072  -0.54579
O          O       0.92494   0.07185   0.67218  -0.53153
O          O       0.76101   0.36132   0.89065  -0.55353
O          O       0.39133   0.40866   0.79475  -0.58292

