data_crystal

_audit_creation_method 'AiiDA-DDEC plugin'

_cell_length_a         8.24513
_cell_length_b         8.72122
_cell_length_c        20.97354

_cell_angle_alpha     89.99773
_cell_angle_beta     89.99954
_cell_angle_gamma     90.22028

_symmetry_space_group_name_Hall 'P 1'
_symmetry_space_group_name_H-M  'P 1'

loop_
_symmetry_equiv_pos_as_xyz
 'x,y,z'

loop_
_atom_site_label
_atom_site_type_symbol
_atom_site_fract_x
_atom_site_fract_y
_atom_site_fract_z
_atom_site_charge
Cu         Cu     -0.00001   0.50000   0.50000   0.42546
Cu         Cu      0.50000   0.00000  -0.00000   0.42431
H          H       0.58902   0.37396   0.49686   0.13028
H          H       0.82020   0.93717   0.50349   0.12133
H          H       0.06505   0.67697   0.36067   0.13107
H          H       0.55401   0.66612   0.34030   0.11426
H          H       0.49101   0.79330   0.13960   0.12821
H          H       0.99432   0.85756   0.17075   0.11150
H          H       0.41097   0.62605   0.50314   0.13018
H          H       0.17979   0.06283   0.49651   0.12152
H          H       0.93494   0.32303   0.63933   0.13128
H          H       0.44598   0.33389   0.65970   0.11407
H          H       0.50898   0.20671   0.86040   0.12795
H          H       0.00567   0.14244   0.82924   0.11163
H          H       0.91095   0.12602   0.99683   0.13117
H          H       0.67976   0.56279   0.00343   0.12196
H          H       0.43490   0.82297   0.86057   0.13099
H          H       0.94600   0.83380   0.84019   0.11455
H          H       0.00892   0.70665   0.63951   0.12867
H          H       0.50568   0.64240   0.67070   0.11195
H          H       0.08904   0.87399   0.00317   0.13129
H          H       0.32023   0.43721   0.99656   0.12190
H          H       0.56509   0.17703   0.13943   0.13083
H          H       0.05399   0.16620   0.15981   0.11469
H          H       0.99107   0.29335   0.36049   0.12883
H          H       0.49431   0.35760   0.32930   0.11190
C          C       0.68275   0.28721   0.49778   0.06343
C          C       0.80151   0.06003   0.50041   0.03813
C          C       0.93801   0.65966   0.37120   0.02841
C          C       0.67320   0.65285   0.36082   0.00955
C          C       0.61645   0.82418   0.13158   0.03332
C          C       0.87722   0.85756   0.14758   0.01144
C          C       0.31724   0.71279   0.50221   0.06306
C          C       0.19847   0.93997   0.49959   0.03795
C          C       0.06198   0.34034   0.62879   0.02849
C          C       0.32679   0.34715   0.63918   0.00927
C          C       0.38354   0.17582   0.86841   0.02707
C          C       0.12277   0.14245   0.85241   0.00557
C          C       0.81722   0.21279   0.99765   0.05994
C          C       0.69844   0.43995   0.00029   0.03580
C          C       0.56196   0.84039   0.87106   0.02746
C          C       0.82674   0.84719   0.86067   0.01005
C          C       0.88350   0.67577   0.63147   0.03030
C          C       0.62272   0.64238   0.64750   0.01124
C          C       0.18277   0.78722   0.00235   0.06045
C          C       0.30155   0.56006  -0.00030   0.03592
C          C       0.43803   0.15961   0.12894   0.02701
C          C       0.17325   0.15281   0.13933   0.01020
C          C       0.11649   0.32423   0.36853   0.03046
C          C       0.37727   0.35763   0.35249   0.01089
N          N       0.84120   0.30683   0.49125  -0.16784
N          N       0.91600   0.16432   0.49457  -0.19555
N          N       0.65226   0.13213   0.50351   0.09619
N          N       0.49834   0.07131   0.50830  -0.09178
N          N       0.87480   0.60722   0.42484  -0.15368
N          N       0.70778   0.60197   0.41854  -0.17229
N          N       0.81528   0.68990   0.32879   0.13459
N          N       0.84415   0.74330   0.26798  -0.16160
N          N       0.67915   0.88167   0.07886  -0.18450
N          N       0.84428   0.90350   0.08891  -0.19057
N          N       0.73610   0.80683   0.17681   0.10943
N          N       0.70670   0.75111   0.23724  -0.15583
N          N       0.15879   0.69318   0.50874  -0.16788
N          N       0.08399   0.83568   0.50542  -0.19502
N          N       0.34773   0.86787   0.49649   0.09644
N          N       0.50165   0.92869   0.49170  -0.09230
N          N       0.12519   0.39278   0.57516  -0.15320
N          N       0.29221   0.39803   0.58146  -0.17232
N          N       0.18470   0.31010   0.67121   0.13420
N          N       0.15584   0.25670   0.73202  -0.16148
N          N       0.32083   0.11834   0.92113  -0.18555
N          N       0.15571   0.09650   0.91109  -0.19120
N          N       0.26389   0.19318   0.82319   0.13076
N          N       0.29329   0.24889   0.76276  -0.16328
N          N       0.65875   0.19313   0.99120  -0.16681
N          N       0.58395   0.33564   0.99451  -0.19501
N          N       0.84770   0.36786   0.00335   0.10178
N          N       0.00157   0.42872   0.00836  -0.09528
N          N       0.62515   0.89301   0.92465  -0.15100
N          N       0.79217   0.89824   0.91835  -0.17429
N          N       0.68467   0.81006   0.82866   0.13502
N          N       0.65585   0.75662   0.76786  -0.16180
N          N       0.82076   0.61831   0.57875  -0.18242
N          N       0.65563   0.59646   0.58881  -0.19074
N          N       0.76387   0.69311   0.67670   0.10952
N          N       0.79329   0.74886   0.73711  -0.15554
N          N       0.34124   0.80687   0.00880  -0.16701
N          N       0.41604   0.66437   0.00548  -0.19561
N          N       0.15228   0.63214   0.99665   0.10153
N          N      -0.00159   0.57128   0.99164  -0.09442
N          N       0.37484   0.10700   0.07534  -0.15104
N          N       0.20782   0.10176   0.08165  -0.17377
N          N       0.31532   0.18995   0.17134   0.13517
N          N       0.34414   0.24339   0.23214  -0.16243
N          N       0.17923   0.38169   0.42125  -0.18240
N          N       0.34435   0.40355   0.41119  -0.19118
N          N       0.23611   0.30689   0.32330   0.10977
N          N       0.20670   0.25114   0.26288  -0.15494

