data_crystal

_audit_creation_method 'AiiDA-DDEC plugin'

_cell_length_a         8.97066
_cell_length_b        14.23818
_cell_length_c        15.29731

_cell_angle_alpha     115.00843
_cell_angle_beta     106.88366
_cell_angle_gamma     89.98524

_symmetry_space_group_name_Hall 'P 1'
_symmetry_space_group_name_H-M  'P 1'

loop_
_symmetry_equiv_pos_as_xyz
 'x,y,z'

loop_
_atom_site_label
_atom_site_type_symbol
_atom_site_fract_x
_atom_site_fract_y
_atom_site_fract_z
_atom_site_charge
Nd         Nd      0.36164   0.99184   0.46211   2.13867
Nd         Nd      0.89912   0.00880   0.53889   1.58516
H          H       0.18936   0.19751   0.33385   0.11159
H          H       0.18488   0.36341   0.31586   0.10960
H          H       0.83247   0.44676   0.46549   0.10856
H          H       0.83564   0.27984   0.48011   0.10540
H          H       0.07934   0.46195   0.24818   0.11057
H          H       0.12495   0.63716   0.25473   0.11915
H          H       0.98802   0.77637   0.52412   0.10961
H          H       0.95463   0.60415   0.52299   0.10318
H          H       0.57543   0.27890   0.76810   0.10950
H          H       0.66065   0.44259   0.92759   0.10769
H          H       0.19562   0.42750   0.95126   0.10664
H          H       0.10899   0.26965   0.78575   0.11866
H          H       0.85330   0.80261   0.66566   0.11464
H          H       0.86756   0.63689   0.68369   0.10814
H          H       0.36760   0.55314   0.53477   0.10587
H          H       0.35571   0.72007   0.51991   0.10693
H          H       0.83006   0.53772   0.75122   0.11313
H          H       0.86881   0.36219   0.74405   0.11714
H          H       0.46458   0.22387   0.47627   0.08972
H          H       0.43205   0.39635   0.47741   0.10581
H          H       0.80684   0.71979   0.23069   0.11007
H          H       0.73181   0.55610   0.07103   0.10608
H          H       0.24441   0.57353   0.04995   0.10409
H          H       0.32354   0.73143   0.21546   0.11924
C          C       0.02817   0.13150   0.42474   0.65196
C          C       0.01551   0.22889   0.40979  -0.05708
C          C       0.11134   0.25278   0.36196  -0.08659
C          C       0.10823   0.34560   0.35202  -0.14380
C          C       0.01064   0.41867   0.39105   0.07028
C          C       0.91178   0.39303   0.43669  -0.13565
C          C       0.91289   0.29915   0.44504  -0.07589
C          C       0.01706   0.51993   0.38636   0.07356
C          C       0.06122   0.53083   0.30960  -0.13971
C          C       0.08491   0.62862   0.31210  -0.08323
C          C       0.06121   0.71843   0.39054  -0.03930
C          C       0.00824   0.70732   0.46373  -0.07643
C          C       0.98788   0.60987   0.46237  -0.13229
C          C       0.10869   0.82405   0.40218   0.58676
C          C       0.28184   0.16398   0.66977   0.63413
C          C       0.33581   0.26388   0.76564  -0.04887
C          C       0.49209   0.31346   0.80765  -0.08174
C          C       0.53939   0.40565   0.89826  -0.14266
C          C       0.43369   0.45117   0.95159   0.07067
C          C       0.27856   0.39831   0.90996  -0.14594
C          C       0.22999   0.30787   0.81833  -0.09190
C          C       0.60418   0.86904   0.57564   0.63994
C          C       0.60543   0.77168   0.59043  -0.04677
C          C       0.74803   0.74738   0.63777  -0.08879
C          C       0.75517   0.65467   0.64774  -0.14334
C          C       0.61921   0.58163   0.60902   0.06257
C          C       0.47510   0.60723   0.56336  -0.13445
C          C       0.46786   0.70119   0.55491  -0.07617
C          C       0.63049   0.48013   0.61362   0.08009
C          C       0.75113   0.46888   0.68993  -0.13795
C          C       0.77209   0.37087   0.68704  -0.08029
C          C       0.66981   0.28131   0.60922  -0.05479
C          C       0.54456   0.29282   0.53623  -0.07806
C          C       0.52563   0.39039   0.53772  -0.13023
C          C       0.70462   0.17530   0.59690   0.60460
C          C       0.61230   0.83595   0.33025   0.64339
C          C       0.57010   0.73599   0.23436  -0.04967
C          C       0.68397   0.68587   0.19178  -0.08144
C          C       0.64060   0.59376   0.10115  -0.14103
C          C       0.48177   0.54883   0.04840   0.06789
C          C       0.36859   0.60212   0.09065  -0.14431
C          C       0.41160   0.69258   0.18229  -0.09289
O          O       0.14769   0.08517   0.41373  -0.66899
O          O       0.91704   0.10149   0.44840  -0.55522
O          O       0.10163   0.90579   0.48137  -0.67899
O          O       0.17015   0.83267   0.34021  -0.60833
O          O       0.37974   0.12913   0.62094  -0.66499
O          O       0.14276   0.11822   0.64246  -0.61749
O          O       0.73438   0.91569   0.58661  -0.62169
O          O       0.46973   0.89896   0.55169  -0.64546
O          O       0.61698   0.09401   0.51830  -0.67294
O          O       0.82923   0.16605   0.65750  -0.53478
O          O       0.75789   0.87120   0.37934  -0.60644
O          O       0.50001   0.88175   0.35763  -0.69410

