data_crystal

_audit_creation_method 'AiiDA-DDEC plugin'

_cell_length_a        10.28731
_cell_length_b        11.06155
_cell_length_c        11.06175

_cell_angle_alpha     95.79486
_cell_angle_beta     108.78400
_cell_angle_gamma     108.78434

_symmetry_space_group_name_Hall 'P 1'
_symmetry_space_group_name_H-M  'P 1'

loop_
_symmetry_equiv_pos_as_xyz
 'x,y,z'

loop_
_atom_site_label
_atom_site_type_symbol
_atom_site_fract_x
_atom_site_fract_y
_atom_site_fract_z
_atom_site_charge
Zn         Zn      0.32367   0.92279   0.99532   0.69271
Zn         Zn      0.82367   0.99532   0.92279   0.69263
H          H       0.01398   0.04536   0.60750   0.08199
H          H       0.37350   0.99121   0.54753   0.08044
H          H       0.44890   0.93191   0.76443   0.09925
H          H       0.86854   0.54032   0.23597   0.09607
H          H       0.04667   0.69803   0.45818   0.10858
H          H       0.97671   0.44402   0.26330   0.08567
H          H       0.81476   0.50284   0.43786   0.10570
H          H       0.92710   0.40938   0.47038   0.09730
H          H       0.17971   0.97314   0.18260   0.09516
H          H       0.08761   0.87415   0.34608   0.11816
H          H       0.15825   0.60368   0.47293   0.09895
H          H       0.23778   0.56355   0.26810   0.10428
H          H       0.32803   0.67896   0.10914   0.09536
H          H       0.39953   0.21667   0.03675   0.09238
H          H       0.61286   0.42112   0.17686   0.11850
H          H       0.80216   0.17637   0.39613   0.11904
H          H       0.58443   0.98178   0.24166   0.09564
H          H       0.51398   0.60750   0.04536   0.08200
H          H       0.87350   0.54753   0.99121   0.08041
H          H       0.94890   0.76444   0.93191   0.09929
H          H       0.36854   0.23596   0.54032   0.09613
H          H       0.54667   0.45818   0.69802   0.10858
H          H       0.47671   0.26330   0.44402   0.08564
H          H       0.31476   0.43786   0.50284   0.10572
H          H       0.42711   0.47038   0.40938   0.09729
H          H       0.67972   0.18261   0.97314   0.09518
H          H       0.58761   0.34609   0.87414   0.11813
H          H       0.65825   0.47294   0.60368   0.09904
H          H       0.73778   0.26810   0.56355   0.10431
H          H       0.82803   0.10914   0.67896   0.09533
H          H       0.89953   0.03675   0.21667   0.09231
H          H       0.11286   0.17686   0.42112   0.11849
H          H       0.30217   0.39613   0.17638   0.11902
H          H       0.08444   0.24166   0.98179   0.09568
C          C       0.15157   0.98830   0.76281  -0.02588
C          C       0.11199   0.02038   0.64064   0.02809
C          C       0.30930   0.98969   0.60899  -0.04166
C          C       0.35133   0.95661   0.72848   0.02259
C          C       0.06873   0.98577   0.84786   0.48919
C          C       0.59421   0.08136   0.23324   0.09285
C          C       0.71464   0.19004   0.31858  -0.21250
C          C       0.72399   0.31672   0.30301   0.15528
C          C       0.60860   0.32639   0.19895  -0.18887
C          C       0.49132   0.21320   0.11806   0.08209
C          C       0.27183   0.71628   0.16299   0.07186
C          C       0.22209   0.65406   0.25165  -0.21230
C          C       0.14961   0.70671   0.31754   0.16588
C          C       0.13666   0.82501   0.29365  -0.19133
C          C       0.19058   0.88254   0.20477   0.09292
C          C       0.85429   0.43715   0.39088  -0.20508
C          C       0.94178   0.51113   0.31377  -0.14083
C          C       0.07865   0.63330   0.40152  -0.20626
C          C       0.65157   0.76281   0.98829  -0.02588
C          C       0.61199   0.64063   0.02038   0.02773
C          C       0.80931   0.60899   0.98969  -0.04160
C          C       0.85133   0.72848   0.95661   0.02261
C          C       0.56873   0.84786   0.98577   0.48905
C          C       0.09421   0.23325   0.08137   0.09294
C          C       0.21464   0.31858   0.19005  -0.21254
C          C       0.22399   0.30301   0.31672   0.15533
C          C       0.10859   0.19895   0.32639  -0.18895
C          C       0.99132   0.11806   0.21320   0.08219
C          C       0.77184   0.16299   0.71628   0.07190
C          C       0.72209   0.25165   0.65406  -0.21224
C          C       0.64961   0.31754   0.70671   0.16583
C          C       0.63666   0.29365   0.82500  -0.19115
C          C       0.69058   0.20477   0.88254   0.09284
C          C       0.35429   0.39088   0.43714  -0.20502
C          C       0.44178   0.31377   0.51113  -0.14101
C          C       0.57864   0.40152   0.63330  -0.20623
N          N       0.18740   0.02432   0.56161  -0.30214
N          N       0.27685   0.95684   0.81024  -0.28746
N          N       0.48350   0.09188   0.13425  -0.22266
N          N       0.25476   0.82843   0.13751  -0.22470
N          N       0.68740   0.56160   0.02432  -0.30201
N          N       0.77685   0.81025   0.95683  -0.28736
N          N       0.98350   0.13425   0.09188  -0.22269
N          N       0.75476   0.13751   0.82843  -0.22486
O          O       0.94309   0.00045   0.80491  -0.56514
O          O       0.12477   0.96698   0.96284  -0.55906
O          O       0.44309   0.80491   0.00044  -0.56523
O          O       0.62477   0.96284   0.96698  -0.55891

