data_crystal

_audit_creation_method 'AiiDA-DDEC plugin'

_cell_length_a         7.78653
_cell_length_b        11.50614
_cell_length_c        13.83719

_cell_angle_alpha     63.14713
_cell_angle_beta     88.55407
_cell_angle_gamma     88.89043

_symmetry_space_group_name_Hall 'P 1'
_symmetry_space_group_name_H-M  'P 1'

loop_
_symmetry_equiv_pos_as_xyz
 'x,y,z'

loop_
_atom_site_label
_atom_site_type_symbol
_atom_site_fract_x
_atom_site_fract_y
_atom_site_fract_z
_atom_site_charge
Mn         Mn      0.28831   0.56741   0.25389   0.94112
Mn         Mn      0.21687   0.17712   0.25258   0.98458
Mn         Mn      0.71220   0.43287   0.74663   0.94271
Mn         Mn      0.78508   0.82266   0.74737   0.98473
Ag         Ag      0.75164   0.89655   0.19062   0.14639
Ag         Ag      0.24938   0.10390   0.80964   0.14653
Ag         Ag      0.00061   0.00019  -0.00007   0.17655
Ag         Ag      0.50116  -0.00007  -0.00020   0.15908
H          H       0.32949   0.44876   0.50338   0.09082
H          H       0.19256   0.46174   0.66438   0.12883
H          H       0.94781   0.81924   0.44067   0.11769
H          H       0.08465   0.78703   0.28975   0.07941
H          H       0.17428   0.04373   0.50361   0.08902
H          H       0.31575   0.86542   0.66337   0.13376
H          H       0.55962   0.74115   0.44093   0.11331
H          H       0.41792   0.92775   0.29087   0.07815
H          H       0.67113   0.55064   0.49703   0.09031
H          H       0.80872   0.53805   0.33588   0.12936
H          H       0.05345   0.18054   0.55982   0.11776
H          H       0.91603   0.21255   0.71054   0.07951
H          H       0.82735   0.95695   0.49575   0.08832
H          H       0.68542   0.13523   0.33609   0.13385
H          H       0.44148   0.25853   0.55928   0.11382
H          H       0.58368   0.07167   0.70894   0.07766
C          C       0.60204   0.74472   0.20572   0.00199
C          C       0.11324   0.82129   0.08945   0.00068
C          C       0.24146   0.52756   0.49364   0.08221
C          C       0.16613   0.53550   0.58249  -0.13254
C          C       0.05514   0.64007   0.56468   0.00595
C          C       0.02958   0.73469   0.45810  -0.15182
C          C       0.10615   0.71736   0.37371   0.08156
C          C       0.96133   0.64880   0.65664   0.59478
C          C       0.89174   0.03439   0.20848  -0.00122
C          C       0.40017   0.10105   0.07879   0.00996
C          C       0.26336   0.97594   0.49347   0.08617
C          C       0.34158   0.87664   0.58197  -0.13635
C          C       0.45381   0.79033   0.56503   0.00119
C          C       0.47703   0.80661   0.45866  -0.15702
C          C       0.39762   0.91042   0.37443   0.07809
C          C       0.54909   0.68870   0.65641   0.54969
C          C       0.39941   0.25532   0.79464   0.00245
C          C       0.88817   0.17928   0.91036   0.00083
C          C       0.75967   0.47218   0.50669   0.08347
C          C       0.83519   0.46430   0.41783  -0.13318
C          C       0.94623   0.35966   0.43577   0.00531
C          C       0.97177   0.26515   0.54239  -0.15140
C          C       0.89487   0.28252   0.62669   0.08152
C          C       0.03969   0.35098   0.34357   0.59379
C          C       0.10973   0.96589   0.79166  -0.00047
C          C       0.60218   0.89849   0.92110   0.01079
C          C       0.73804   0.02458   0.50585   0.08632
C          C       0.65983   0.12408   0.41749  -0.13621
C          C       0.54761   0.21014   0.43472   0.00153
C          C       0.52447   0.19350   0.54123  -0.15729
C          C       0.60384   0.08940   0.62526   0.07847
C          C       0.45160   0.31149   0.34364   0.54920
N          N       0.49717   0.66573   0.22088  -0.33145
N          N       0.17658   0.72015   0.14611  -0.32784
N          N       0.20823   0.61417   0.39026  -0.23455
N          N       0.98380   0.10652   0.22014  -0.35221
N          N       0.34040   0.15419   0.12713  -0.36079
N          N       0.29383   0.99661   0.39002  -0.27119
N          N       0.50423   0.33437   0.77921  -0.33127
N          N       0.82452   0.28029   0.85365  -0.32795
N          N       0.79258   0.38558   0.61012  -0.23608
N          N       0.01750   0.89414   0.77960  -0.35300
N          N       0.66203   0.84491   0.87313  -0.36101
N          N       0.70789   0.00355   0.60940  -0.27191
O          O       0.94080   0.76087   0.65173  -0.52612
O          O       0.90826   0.54231   0.73486  -0.52180
O          O       0.59279   0.58634   0.64514  -0.51188
O          O       0.58443   0.70713   0.73775  -0.54698
O          O       0.06008   0.23903   0.34822  -0.52536
O          O       0.09220   0.45768   0.26531  -0.52173
O          O       0.40664   0.41314   0.35564  -0.51182
O          O       0.41655   0.29350   0.26202  -0.54680

