data_crystal

_audit_creation_method 'AiiDA-DDEC plugin'

_cell_length_a        12.84406
_cell_length_b        12.83708
_cell_length_c        15.69755

_cell_angle_alpha     85.35020
_cell_angle_beta     85.28801
_cell_angle_gamma     62.88655

_symmetry_space_group_name_Hall 'P 1'
_symmetry_space_group_name_H-M  'P 1'

loop_
_symmetry_equiv_pos_as_xyz
 'x,y,z'

loop_
_atom_site_label
_atom_site_type_symbol
_atom_site_fract_x
_atom_site_fract_y
_atom_site_fract_z
_atom_site_charge
Eu         Eu      0.64201   0.01030   0.48294   1.66476
Eu         Eu      0.00984   0.64233   0.98472   1.66625
Eu         Eu      0.35798   0.98971   0.51706   1.66479
Eu         Eu      0.99016   0.35768   0.01529   1.66628
H          H       0.26177   0.19828   0.77059   0.13766
H          H       0.47988   0.30015   0.37200   0.13570
H          H       0.51503   0.30360   0.65052   0.13530
H          H       0.48496   0.69641   0.34948   0.13526
H          H       0.69431   0.48860   0.85019   0.13501
H          H       0.52011   0.69986   0.62800   0.13569
H          H       0.70226   0.51669   0.13063   0.13538
H          H       0.19863   0.26006   0.27082   0.13874
H          H       0.80136   0.73995   0.72919   0.13880
H          H       0.29774   0.48331   0.86937   0.13545
H          H       0.73822   0.80172   0.22940   0.13780
H          H       0.30569   0.51141   0.14981   0.13510
C          C       0.41410   0.32431   0.32483  -0.11055
C          C       0.74461   0.69747   0.73256  -0.06792
C          C       0.53045   0.52520   0.24663  -0.04188
C          C       0.46955   0.47481   0.75338  -0.04212
C          C       0.34938   0.17874   0.39590   0.60942
C          C       0.47389   0.46923   0.25474  -0.04278
C          C       0.52611   0.53077   0.74526  -0.04251
C          C       0.58851   0.59636   0.24154   0.13106
C          C       0.67657   0.58392   0.17693  -0.11016
C          C       0.44548   0.31534   0.69897  -0.10322
C          C       0.72988   0.65794   0.17323  -0.03184
C          C       0.14995   0.42672   0.13982   0.63400
C          C       0.59706   0.58899   0.74045   0.13127
C          C       0.55452   0.68466   0.30103  -0.10310
C          C       0.60778   0.75870   0.29623  -0.03309
C          C       0.68354   0.55691   0.80098  -0.10237
C          C       0.30404   0.25523   0.76701  -0.06718
C          C       0.75715   0.61056   0.79649  -0.03301
C          C       0.43096   0.14650   0.64124   0.63531
C          C       0.41148   0.40365   0.75846   0.13131
C          C       0.58589   0.67570   0.67517  -0.11053
C          C       0.24285   0.38945   0.20351  -0.03295
C          C       0.25539   0.30253   0.26743  -0.06808
C          C       0.69596   0.74478   0.23299  -0.06745
C          C       0.34060   0.27049   0.32810  -0.03202
C          C       0.31645   0.44309   0.19902  -0.10227
C          C       0.56903   0.85351   0.35876   0.63526
C          C       0.39222   0.24131   0.70377  -0.03329
C          C       0.32342   0.41609   0.82307  -0.11004
C          C       0.82257   0.64915   0.10601   0.61041
C          C       0.17742   0.35085   0.89399   0.61065
C          C       0.40294   0.41102   0.25955   0.13136
C          C       0.65061   0.82127   0.60410   0.60932
C          C       0.27011   0.34207   0.82677  -0.03231
C          C       0.65940   0.72951   0.67190  -0.03195
C          C       0.85005   0.57328   0.86019   0.63398
N          N       0.73418   0.17472   0.50850   0.71204
N          N       0.82437   0.26552   0.99123   0.71430
N          N       0.17563   0.73448   0.00877   0.71436
N          N       0.26582   0.82529   0.49150   0.71219
O          O       0.21578   0.92993   0.45860  -0.44857
O          O       0.53248   0.11298   0.60546  -0.62580
O          O       0.07187   0.78367   0.04328  -0.45036
O          O       0.74306   0.25159   0.96694  -0.30987
O          O       0.35955   0.10613   0.62791  -0.62634
O          O       0.15401   0.26514   0.90900  -0.56602
O          O       0.11695   0.52811   0.10376  -0.62774
O          O       0.73553   0.84573   0.58879  -0.56376
O          O       0.92813   0.21633   0.95672  -0.45056
O          O       0.64045   0.89388   0.37209  -0.62638
O          O       0.25693   0.74842   0.03306  -0.30989
O          O       0.78420   0.07007   0.54140  -0.44880
O          O       0.55586   0.87432   0.56254  -0.70201
O          O       0.66723   0.19096   0.44608  -0.49737
O          O       0.84599   0.73487   0.09100  -0.56571
O          O       0.26446   0.15427   0.41121  -0.56375
O          O       0.88304   0.47189   0.89624  -0.62790
O          O       0.12227   0.44574   0.93532  -0.70147
O          O       0.33276   0.80905   0.55392  -0.49756
O          O       0.87772   0.55426   0.06469  -0.70161
O          O       0.25354   0.74415   0.46499  -0.30946
O          O       0.88917   0.64545   0.87418  -0.62365
O          O       0.80925   0.33337   0.05283  -0.49800
O          O       0.19075   0.66664   0.94717  -0.49816
O          O       0.44414   0.12569   0.43746  -0.70204
O          O       0.11082   0.35455   0.12583  -0.62385
O          O       0.74646   0.25585   0.53501  -0.30922
O          O       0.46751   0.88704   0.39454  -0.62574

