data_crystal

_audit_creation_method 'AiiDA-DDEC plugin'

_cell_length_a         9.90913
_cell_length_b        10.06917
_cell_length_c        13.62548

_cell_angle_alpha     82.03268
_cell_angle_beta     86.67426
_cell_angle_gamma     65.49411

_symmetry_space_group_name_Hall 'P 1'
_symmetry_space_group_name_H-M  'P 1'

loop_
_symmetry_equiv_pos_as_xyz
 'x,y,z'

loop_
_atom_site_label
_atom_site_type_symbol
_atom_site_fract_x
_atom_site_fract_y
_atom_site_fract_z
_atom_site_charge
Cs         Cs      0.15421   0.56596   0.38776   0.88875
Cs         Cs      0.84694   0.43447   0.61190   0.88837
Tb         Tb      0.31840   0.22328   0.17444   1.72403
Tb         Tb      0.67946   0.77566   0.82765   1.71164
Mo         Mo      0.74442   0.62528   0.23842   0.81973
Mo         Mo      0.25647   0.37368   0.76057   0.87440
H          H       0.46663   0.41944   0.19997   0.36880
H          H       0.39443   0.54912   0.05060   0.11626
H          H       0.28285   0.65910   0.14295   0.12532
H          H       0.20955   0.56388   0.07416   0.13597
H          H       0.53240   0.58037   0.79989   0.37073
H          H       0.60563   0.45021   0.95017   0.11755
H          H       0.71661   0.34232   0.85666   0.12596
H          H       0.79016   0.43659   0.92619   0.13629
C          C       0.84305   0.44419   0.34685  -0.06604
C          C       0.74111   0.70070   0.37793  -0.06329
C          C       0.54597   0.61882   0.30201  -0.01914
C          C       0.56936   0.84799   0.21754   0.10656
C          C       0.70052   0.46213   0.17903  -0.01125
C          C       0.28465   0.30858   0.91712   0.06109
C          C       0.95889   0.48821   0.19042   0.06548
C          C       0.86999   0.75393   0.21430  -0.13366
C          C       0.30887   0.56097   0.10676  -0.12443
C          C       0.15787   0.55743   0.65242  -0.06536
C          C       0.25740   0.29981   0.62200  -0.09378
C          C       0.45405   0.38266   0.69797  -0.06761
C          C       0.43071   0.15131   0.78177   0.07874
C          C       0.29906   0.53790   0.82075  -0.01783
C          C       0.71539   0.69010   0.08206   0.06332
C          C       0.04182   0.51248   0.80829   0.08421
C          C       0.12989   0.24581   0.78603  -0.11645
C          C       0.69053   0.43956   0.89376  -0.12548
N          N       0.90161   0.34246   0.40682  -0.36749
N          N       0.74748   0.73166   0.45714  -0.37478
N          N       0.43642   0.61011   0.33238  -0.37034
N          N       0.48160   0.97120   0.20254  -0.56043
N          N       0.66294   0.37773   0.15063  -0.35660
N          N       0.29804   0.27682   0.00396  -0.51647
N          N       0.08054   0.40067   0.17547  -0.58344
N          N       0.95048   0.81393   0.20334  -0.29931
N          N       0.09737   0.65872   0.59256  -0.36752
N          N       0.25286   0.26785   0.54289  -0.36280
N          N       0.56432   0.38969   0.66762  -0.34789
N          N       0.51708   0.02765   0.79812  -0.54210
N          N       0.33670   0.62234   0.84910  -0.35441
N          N       0.70169   0.72198   0.99523  -0.51706
N          N       0.92041   0.59848   0.82505  -0.58101
N          N       0.04945   0.18579   0.79641  -0.30940
O          O       0.36450   0.43047   0.18375  -0.57219
O          O       0.63340   0.57111   0.81757  -0.57567

