data_crystal

_audit_creation_method 'AiiDA-DDEC plugin'

_cell_length_a         9.28090
_cell_length_b        10.51621
_cell_length_c        13.27990

_cell_angle_alpha     66.62326
_cell_angle_beta     83.93062
_cell_angle_gamma     74.12399

_symmetry_space_group_name_Hall 'P 1'
_symmetry_space_group_name_H-M  'P 1'

loop_
_symmetry_equiv_pos_as_xyz
 'x,y,z'

loop_
_atom_site_label
_atom_site_type_symbol
_atom_site_fract_x
_atom_site_fract_y
_atom_site_fract_z
_atom_site_charge
Mg         Mg      0.24888   0.67898   0.64284   1.54289
Mg         Mg      0.75113   0.32102   0.35717   1.54284
H          H       0.18820   0.97692   0.46484   0.36616
H          H       0.08201   0.00316   0.21153   0.13288
H          H       0.92625   0.66882   0.47249   0.13536
H          H       0.85925   0.73904   0.13711   0.13200
H          H       0.31127   0.55788   0.46475   0.36608
H          H       0.41668   0.78502   0.21214   0.13262
H          H       0.57308   0.85823   0.47309   0.13514
H          H       0.63787   0.12471   0.13784   0.13251
H          H       0.81180   0.02308   0.53514   0.36612
H          H       0.91798   0.99681   0.78848   0.13295
H          H       0.07375   0.33118   0.52751   0.13544
H          H       0.14077   0.26096   0.86291   0.13186
H          H       0.68873   0.44212   0.53524   0.36609
H          H       0.58333   0.21499   0.78787   0.13259
H          H       0.42692   0.14177   0.52691   0.13529
H          H       0.36213   0.87526   0.86218   0.13246
C          C       0.07674   0.86495   0.43447   0.61382
C          C       0.01086   0.83875   0.35042  -0.06204
C          C       0.02637   0.91669   0.23855  -0.11771
C          C       0.97209   0.88148   0.16035   0.12733
C          C       0.88388   0.69232   0.30875  -0.03989
C          C       0.93885   0.72793   0.38542  -0.06887
C          C       0.90178   0.76735   0.19650  -0.11153
C          C       0.80722   0.57256   0.35286   0.60298
C          C       0.99013   0.96234   0.04755  -0.09842
C          C       0.42082   0.70135   0.43441   0.61425
C          C       0.48711   0.81136   0.35079  -0.05751
C          C       0.47198   0.84494   0.23892  -0.11939
C          C       0.52625   0.95824   0.16073   0.12919
C          C       0.61407  -0.00060   0.30942  -0.03647
C          C       0.55934   0.88694   0.38601  -0.07030
C          C       0.59592   0.03660   0.19712  -0.11487
C          C       0.69127   0.07522   0.35330   0.60131
C          C       0.50933   0.98984   0.04773  -0.09876
C          C       0.92327   0.13505   0.56553   0.61389
C          C       0.98914   0.16126   0.64956  -0.06228
C          C       0.97363   0.08330   0.76144  -0.11793
C          C       0.02791   0.11852   0.83965   0.12755
C          C       0.11612   0.30769   0.69124  -0.03984
C          C       0.06115   0.27207   0.61457  -0.06864
C          C       0.09824   0.23266   0.80350  -0.11166
C          C       0.19278   0.42742   0.64714   0.60327
C          C       0.00987   0.03766   0.95246  -0.09864
C          C       0.57918   0.29863   0.56560   0.61386
C          C       0.51288   0.18864   0.64919  -0.05735
C          C       0.52803   0.15508   0.76106  -0.11920
C          C       0.47375   0.04176   0.83926   0.12902
C          C       0.38594   0.00061   0.69056  -0.03656
C          C       0.44066   0.11307   0.61397  -0.07020
C          C       0.40407   0.96339   0.80288  -0.11498
C          C       0.30874   0.92479   0.64671   0.60139
C          C       0.49068   0.01015   0.95228  -0.09882
O          O       0.13526   0.97514   0.39913  -0.45349
O          O       0.07987   0.78112   0.53365  -0.66849
O          O       0.77123   0.53515   0.45327  -0.55504
O          O       0.78587   0.51501   0.28799  -0.70788
O          O       0.36433   0.62508   0.39919  -0.45344
O          O       0.41530   0.68742   0.53323  -0.66968
O          O       0.72789   0.01230   0.45379  -0.55341
O          O       0.71322   0.19732   0.28804  -0.70701
O          O       0.86476   0.02487   0.60087  -0.45353
O          O       0.92013   0.21887   0.46634  -0.66848
O          O       0.22879   0.46486   0.54674  -0.55506
O          O       0.21413   0.48500   0.71200  -0.70822
O          O       0.63565   0.37490   0.60081  -0.45345
O          O       0.58472   0.31259   0.46677  -0.66952
O          O       0.27211   0.98768   0.54622  -0.55341
O          O       0.28678   0.80270   0.71194  -0.70717

