data_crystal

_audit_creation_method 'AiiDA-DDEC plugin'

_cell_length_a         7.68689
_cell_length_b        11.14289
_cell_length_c        15.34516

_cell_angle_alpha     110.99130
_cell_angle_beta     103.94534
_cell_angle_gamma     91.91518

_symmetry_space_group_name_Hall 'P 1'
_symmetry_space_group_name_H-M  'P 1'

loop_
_symmetry_equiv_pos_as_xyz
 'x,y,z'

loop_
_atom_site_label
_atom_site_type_symbol
_atom_site_fract_x
_atom_site_fract_y
_atom_site_fract_z
_atom_site_charge
Cd         Cd      0.30757   0.74843   0.19460   0.86115
Cd         Cd      0.61109   0.55210   0.80347   0.86143
H          H       0.17964   0.62407   0.36393   0.11577
H          H       0.39845   0.59705   0.50110   0.11403
H          H       0.01818   0.69129   0.67151   0.11387
H          H       0.79232   0.71317   0.53371   0.11312
H          H       0.60025   0.76707   0.40443   0.13143
H          H       0.67831   0.61303   0.12453   0.10672
H          H       0.30143   0.95431   0.81773   0.11110
H          H       0.36174   0.14103   0.77291   0.11384
H          H       0.60591   0.37878   0.07232   0.10382
H          H       0.54636   0.19343   0.11903   0.11149
H          H       0.40840   0.03367   0.15996   0.12881
H          H       0.28744   0.64746   0.95970   0.11033
H          H       0.96586   0.59707   0.24005   0.28418
H          H       0.33454   0.78277   0.86522   0.29326
H          H       0.31584   0.25877   0.63596   0.11518
H          H       0.39638   0.09562   0.49777   0.11379
H          H       0.84410   0.02012   0.32713   0.11336
H          H       0.75743   0.17880   0.46603   0.11230
H          H       0.69590   0.36206   0.59453   0.13106
H          H       0.05223   0.48698   0.87549   0.10671
H          H       0.98475   0.13796   0.18152   0.11187
H          H       0.08956   0.37045   0.22593   0.11357
H          H       0.03335   0.30464   0.92671   0.10321
H          H       0.92668   0.07186   0.88023   0.11160
H          H       0.74587   0.87235   0.83925   0.12725
H          H       0.82589   0.68802   0.03941   0.11044
H          H       0.22519   0.35613   0.76049   0.28210
H          H       0.96755   0.91872   0.13416   0.29437
C          C       0.14218   0.63903   0.43070  -0.14089
C          C       0.26621   0.62444   0.50747  -0.09014
C          C       0.22290   0.64352   0.59479  -0.04868
C          C       0.05222   0.67834   0.60411  -0.09519
C          C       0.92648   0.69095   0.52688  -0.14001
C          C       0.96900   0.67061   0.43862   0.05848
C          C       0.83410   0.67706   0.35626   0.10017
C          C       0.66632   0.72092   0.34841  -0.08532
C          C       0.70165   0.64506   0.20247   0.14092
C          C       0.35508   0.62038   0.67372   0.55752
C          C       0.36798   0.04698   0.87413  -0.14082
C          C       0.40068   0.15205   0.84864  -0.09506
C          C       0.48607   0.27264   0.91996  -0.04197
C          C       0.53763   0.28595   0.01747  -0.07898
C          C       0.50419   0.18184   0.04323  -0.12725
C          C       0.41883   0.06063   0.97206   0.05446
C          C       0.38462   0.95361   0.00131   0.10440
C          C       0.38485   0.95267   0.09149  -0.09375
C          C       0.31762   0.75188   0.98967   0.14782
C          C       0.52732   0.38463   0.89335   0.55959
C          C       0.21113   0.20733   0.56884  -0.13947
C          C       0.25762   0.11647   0.49143  -0.08946
C          C       0.12605   0.04876   0.40376  -0.04875
C          C       0.94607   0.07427   0.39480  -0.09675
C          C       0.89841   0.16356   0.47261  -0.13627
C          C       0.03006   0.23110   0.56114   0.05672
C          C       0.97759   0.31977   0.64358   0.09936
C          C       0.81753   0.37151   0.65091  -0.08526
C          C      -0.00210   0.44117   0.79742   0.14008
C          C       0.17706   0.94686   0.32367   0.55798
C          C       0.99414   0.17360   0.12510  -0.14100
C          C       0.05230   0.30429   0.15039  -0.09258
C          C       0.06601   0.35243   0.07898  -0.04624
C          C       0.01987   0.26731   0.98151  -0.07399
C          C       0.96038   0.13726   0.95591  -0.13043
C          C       0.94628   0.08835   0.02718   0.05385
C          C       0.88195   0.95202  -0.00208   0.10508
C          C       0.79140   0.86019   0.90763  -0.09233
C          C       0.82613   0.76214   0.00939   0.14905
C          C       0.13466   0.49119   0.10650   0.56044
N          N       0.58594   0.70002   0.25272  -0.29687
N          N       0.85215   0.62978   0.26240  -0.23675
N          N       0.34286   0.82702   0.08299  -0.30103
N          N       0.34000   0.82467   0.93837  -0.23565
N          N       0.83215   0.44600   0.74663  -0.29773
N          N       0.08888   0.36610   0.73777  -0.23387
N          N       0.75772   0.74309   0.91601  -0.30386
N          N       0.90021   0.88670   0.06077  -0.23852
O          O       0.49054   0.56369   0.65364  -0.55038
O          O       0.32951   0.65465   0.75847  -0.59916
O          O       0.63476   0.48361   0.95339  -0.56052
O          O       0.45103   0.37454   0.80501  -0.57638
O          O       0.33301   0.91016   0.34267  -0.54995
O          O       0.06477   0.89656   0.23934  -0.59928
O          O       0.18323   0.53043   0.04724  -0.56006
O          O       0.14704   0.56931   0.19495  -0.57645

