data_crystal

_audit_creation_method 'AiiDA-DDEC plugin'

_cell_length_a         9.43070
_cell_length_b        10.40433
_cell_length_c        11.97486

_cell_angle_alpha     99.86244
_cell_angle_beta     90.82858
_cell_angle_gamma     89.12126

_symmetry_space_group_name_Hall 'P 1'
_symmetry_space_group_name_H-M  'P 1'

loop_
_symmetry_equiv_pos_as_xyz
 'x,y,z'

loop_
_atom_site_label
_atom_site_type_symbol
_atom_site_fract_x
_atom_site_fract_y
_atom_site_fract_z
_atom_site_charge
Zn         Zn      0.62399   0.50377   0.99631   0.75500
Zn         Zn      0.96794   0.99607   0.50808   0.76110
H          H       0.79598   0.18198   0.38945   0.10343
H          H       0.59592   0.17089   0.25089   0.14219
H          H       0.62572   0.74997   0.20986   0.15298
H          H       0.82554   0.77913   0.35326   0.09298
H          H       0.50033   0.11945   0.08127   0.09957
H          H       0.36101   0.09485   0.17480   0.09806
H          H       0.30764   0.79507   0.02323   0.10490
H          H       0.19849   0.91087   0.11383   0.09895
H          H       0.90296   0.83940   0.82334   0.13852
H          H       0.69162   0.70591   0.85658   0.09065
H          H       0.88653   0.59075   0.13588   0.09122
H          H       0.09838   0.72159   0.12010   0.13910
H          H       0.33404   0.29799   0.74930   0.12390
H          H       0.95442   0.41701   0.58711   0.12590
H          H       0.23802   0.70627   0.75980   0.12533
H          H       0.78396   0.81032   0.61247   0.10269
H          H       0.57938   0.82457   0.74235   0.14635
H          H       0.61401   0.24516   0.79267   0.15504
H          H       0.81793   0.21302   0.65784   0.08933
H          H       0.50345   0.87981   0.91821   0.09803
H          H       0.35557   0.89566   0.82716   0.09832
H          H       0.29576   0.19923   0.97696   0.10541
H          H       0.18940   0.08134   0.88699   0.10004
H          H       0.90581   0.17020   0.18225   0.14276
H          H       0.69280   0.30789   0.14549   0.09181
H          H       0.87557   0.40254   0.85868   0.09094
H          H       0.08646   0.26429   0.87632   0.13887
H          H       0.33197   0.70667   0.25809   0.12324
H          H       0.99099   0.56502   0.43878   0.12406
H          H       0.25599   0.29421   0.22096   0.12196
H          H       0.03279   0.72145   0.59329   0.34860
H          H       0.05155   0.28102   0.42233   0.34923
C          C       0.75553   0.08805   0.34797   0.10981
C          C       0.64468   0.08152   0.26944  -0.27083
C          C       0.59995   0.95782   0.21568   0.30514
C          C       0.66366   0.84626   0.24747  -0.24208
C          C       0.77268   0.86283   0.32668   0.09444
C          C       0.42523   0.04833   0.10280  -0.04759
C          C       0.24258   0.88436   0.02846  -0.04569
C          C       0.01787   0.79102   0.96818   0.30498
C          C       0.90074   0.78678   0.89406  -0.23357
C          C       0.78531   0.71270   0.91117   0.09375
C          C       0.89231   0.64867   0.06848   0.10193
C          C       0.01234   0.72137   0.05874  -0.26104
C          C       0.43062   0.54373   0.83212   0.56243
C          C       0.30073   0.50598   0.76041  -0.01453
C          C       0.26530   0.37462   0.72679  -0.13744
C          C       0.14134   0.34254   0.66293  -0.02918
C          C       0.05114   0.44136   0.63613  -0.23009
C          C       0.21105   0.60461   0.73171  -0.21932
C          C       0.10369   0.20328   0.62302   0.55458
C          C       0.08550   0.57261   0.67018   0.31573
C          C       0.74368   0.90502   0.65373   0.11026
C          C       0.63031   0.91305   0.72753  -0.26945
C          C       0.58602   0.03721   0.78215   0.30530
C          C       0.65127   0.14810   0.75470  -0.24168
C          C       0.76304   0.12995   0.68016   0.09469
C          C       0.42120   0.94715   0.89665  -0.04450
C          C       0.23537   0.10897   0.97233  -0.05019
C          C       0.01252   0.20581   0.03245   0.30924
C          C       0.89956   0.21835   0.10879  -0.23606
C          C       0.78398   0.29521   0.08998   0.09124
C          C       0.88411   0.34762   0.92824   0.10166
C          C       0.00363   0.27127   0.93917  -0.26279
C          C       0.42956   0.46636   0.15085   0.55831
C          C       0.30940   0.49717   0.23277  -0.02038
C          C       0.27278   0.62574   0.27992  -0.13505
C          C       0.15861   0.65041   0.35491  -0.02986
C          C       0.08070   0.54603   0.38210  -0.22481
C          C       0.23020   0.39378   0.25974  -0.21054
C          C       0.11595   0.78924   0.39830   0.55461
C          C       0.11608   0.41710   0.33398   0.31437
C          C       0.33070  -0.00248   0.00034   0.06623
N          N       0.82062   0.98151   0.37591  -0.25566
N          N       0.77970   0.64290   0.99668  -0.27086
N          N       0.81179   0.01056   0.63116  -0.26542
N          N       0.77505   0.36042   0.00137  -0.26861
O          O       0.45685   0.66183   0.86630  -0.56273
O          O       0.50835   0.44781   0.85723  -0.55542
O          O       0.02989   0.18098   0.52723  -0.56278
O          O       0.13632   0.11561   0.67789  -0.52364
O          O       0.12830   0.86282   0.94530  -0.17352
O          O       0.49938   0.93595   0.13365  -0.16646
O          O       0.99116   0.66536   0.64461  -0.50981
O          O       0.45687   0.35033   0.10718  -0.55919
O          O       0.50008   0.56539   0.12789  -0.55318
O          O       0.04309   0.81250   0.49358  -0.56209
O          O       0.14316   0.87760   0.34418  -0.51964
O          O       0.12298   0.13033   0.05527  -0.17339
O          O       0.48484   0.05950   0.86158  -0.16695
O          O       0.03325   0.31359   0.34995  -0.51319

