data_crystal

_audit_creation_method 'AiiDA-DDEC plugin'

_cell_length_a        10.58058
_cell_length_b        11.42693
_cell_length_c        15.92097

_cell_angle_alpha     106.32431
_cell_angle_beta     90.35650
_cell_angle_gamma     94.05518

_symmetry_space_group_name_Hall 'P 1'
_symmetry_space_group_name_H-M  'P 1'

loop_
_symmetry_equiv_pos_as_xyz
 'x,y,z'

loop_
_atom_site_label
_atom_site_type_symbol
_atom_site_fract_x
_atom_site_fract_y
_atom_site_fract_z
_atom_site_charge
Cu         Cu      0.14338   0.49183   0.49929   1.05116
Cu         Cu      0.85622   0.47078   0.99697   1.04537
Cu         Cu      0.98508   0.35384   0.31553   1.07669
Cu         Cu      0.00642   0.64463   0.18368   1.05966
Cu         Cu      0.85661   0.50817   0.50071   1.05111
Cu         Cu      0.14379   0.52923   0.00302   1.04574
Cu         Cu      0.01491   0.64615   0.68447   1.07671
Cu         Cu      0.99357   0.35537   0.81632   1.05971
H          H       0.48929   0.42902   0.38506   0.14513
H          H       0.50093   0.56011   0.11351   0.15028
H          H       0.01411  -0.00101   0.15508   0.14854
H          H       0.02838   0.00664   0.34704   0.14750
H          H       0.00910   0.43378   0.10126   0.38871
H          H       0.00636   0.56594   0.39749   0.38819
H          H       0.51071   0.57098   0.61494   0.14502
H          H       0.49907   0.43989   0.88649   0.15038
H          H       0.98588   0.00102   0.84490   0.14875
H          H       0.97161   0.99336   0.65296   0.14769
H          H       0.99086   0.56625   0.89872   0.38822
H          H       0.99364   0.43406   0.60251   0.38819
C          C       0.38172   0.51730   0.21161  -0.02349
C          C       0.37838   0.48086   0.28901  -0.01804
C          C       0.49145   0.45801   0.32551  -0.09121
C          C       0.60758   0.46973   0.28600  -0.02482
C          C       0.61129   0.50803   0.20948  -0.01588
C          C       0.49829   0.53038   0.17273  -0.09859
C          C       0.26529   0.54412   0.16775   0.61067
C          C       0.25811   0.46140   0.33462   0.61526
C          C       0.72563   0.44404   0.32895   0.60900
C          C       0.73381   0.52916   0.16600   0.61203
C          C       0.99419   0.11004   0.06781  -0.03734
C          C       0.98501   0.11090   0.97920   0.00928
C          C       0.00785  -0.00051   0.08695  -0.09706
C          C      -0.00268   0.22523   0.14217   0.60054
C          C       0.96167   0.22068   0.94849   0.57684
C          C       0.01250   0.11360   0.48100   0.00670
C          C       0.00521   0.89017   0.43174  -0.03641
C          C       0.01620   0.00338   0.41417  -0.09585
C          C       0.03250   0.22808   0.45263   0.58591
C          C       0.01818   0.77592   0.35839   0.59748
C          C       0.61828   0.48270   0.78839  -0.02378
C          C       0.62161   0.51914   0.71099  -0.01778
C          C       0.50855   0.54199   0.67449  -0.09138
C          C       0.39242   0.53027   0.71400  -0.02473
C          C       0.38871   0.49197   0.79052  -0.01588
C          C       0.50171   0.46962   0.82727  -0.09843
C          C       0.73471   0.45588   0.83225   0.61075
C          C       0.74188   0.53859   0.66537   0.61501
C          C       0.27436   0.55595   0.67105   0.60884
C          C       0.26620   0.47083   0.83400   0.61200
C          C       0.00578   0.88997   0.93218  -0.03800
C          C       0.01497   0.88911   0.02079   0.00929
C          C       0.99214   0.00052   0.91303  -0.09730
C          C       0.00256   0.77475   0.85783   0.60141
C          C       0.03832   0.77931   0.05146   0.57646
C          C       0.98750   0.88640   0.51900   0.00586
C          C       0.99479   0.10983   0.56826  -0.03929
C          C       0.98379   0.99662   0.58583  -0.09501
C          C       0.96750   0.77192   0.54737   0.58584
C          C       0.98182   0.22408   0.64161   0.59828
O          O       0.26834   0.50754   0.08408  -0.51350
O          O       0.18050   0.60038   0.21559  -0.52835
O          O       0.26290   0.51919   0.41630  -0.49371
O          O       0.16991   0.38885   0.29089  -0.53583
O          O       0.81268   0.39513   0.27964  -0.51844
O          O       0.72206   0.47501   0.41236  -0.51249
O          O       0.72994   0.47393   0.08398  -0.49767
O          O       0.82128   0.59861   0.21266  -0.52114
O          O       0.97436   0.20941   0.21827  -0.47532
O          O       0.02591   0.32712   0.12997  -0.52255
O          O       0.86207   0.27458   0.97162  -0.54686
O          O       0.04364   0.24539   0.89590  -0.51671
O          O       0.13177   0.29740   0.47965  -0.54699
O          O       0.94889   0.23999   0.39805  -0.53121
O          O       0.00650   0.78873   0.28033  -0.48048
O          O       0.04280   0.67867   0.37429  -0.52014
O          O      -0.00021   0.51148   0.08039  -0.81066
O          O       0.99367   0.48731   0.41810  -0.81353
O          O       0.73165   0.49246   0.91591  -0.51314
O          O       0.81949   0.39962   0.78440  -0.52858
O          O       0.73709   0.48079   0.58370  -0.49362
O          O       0.83008   0.61116   0.70909  -0.53564
O          O       0.18731   0.60487   0.72037  -0.51815
O          O       0.27793   0.52498   0.58764  -0.51263
O          O       0.27007   0.52607   0.91602  -0.49766
O          O       0.17872   0.40139   0.78734  -0.52127
O          O       0.02565   0.79055   0.78173  -0.47582
O          O       0.97379   0.67290   0.87003  -0.52245
O          O       0.13789   0.72539   0.02825  -0.54704
O          O       0.95640   0.75461   0.10409  -0.51626
O          O       0.86823   0.70260   0.52035  -0.54688
O          O       0.05110   0.76001   0.60195  -0.53121
O          O       0.99350   0.21127   0.71967  -0.48025
O          O       0.95720   0.32133   0.62571  -0.52012
O          O       0.00021   0.48855   0.91960  -0.81008
O          O       0.00632   0.51269   0.58190  -0.81352

