data_crystal

_audit_creation_method 'AiiDA-DDEC plugin'

_cell_length_a        11.34004
_cell_length_b        15.40202
_cell_length_c        17.87690

_cell_angle_alpha     105.51018
_cell_angle_beta     93.19815
_cell_angle_gamma     128.51408

_symmetry_space_group_name_Hall 'P 1'
_symmetry_space_group_name_H-M  'P 1'

loop_
_symmetry_equiv_pos_as_xyz
 'x,y,z'

loop_
_atom_site_label
_atom_site_type_symbol
_atom_site_fract_x
_atom_site_fract_y
_atom_site_fract_z
_atom_site_charge
Cu         Cu      0.61484   0.18046   0.49178   0.91673
Cu         Cu      0.88675   0.33242   0.49617   0.91084
H          H       0.79540   0.55322   0.24609   0.12611
H          H       0.86155   0.50870   0.35838   0.12804
H          H       0.83258   0.10795   0.25256   0.12909
H          H       0.77494   0.93884   0.13813   0.12308
H          H       0.55685   0.41707   0.64639   0.12789
H          H       0.51444   0.46846   0.78111   0.11556
H          H       0.92569   0.54094   0.89823   0.12366
H          H       0.97612   0.50108   0.76398   0.12505
H          H       0.38711   0.16966   0.27874   0.12824
H          H       0.32044   0.21154   0.16474   0.12179
H          H       0.46994   0.69231   0.24713   0.12393
H          H       0.52140   0.86055   0.35874   0.12906
H          H       0.11628   0.26413   0.63942   0.12839
H          H       0.27347   0.31897   0.77386   0.11439
H          H       0.93239   0.29901   0.88286   0.12313
H          H       0.76850   0.23339   0.74684   0.12765
C          C       0.62920   0.33585   0.32432  -0.03448
C          C       0.55456   0.38423   0.19735   0.14186
C          C       0.70743   0.46911   0.25318  -0.13653
C          C       0.74406   0.44463   0.31557  -0.08639
C          C       0.75361   0.01673   0.25068  -0.09310
C          C       0.72190   0.92270   0.18718  -0.13875
C          C       0.76770   0.45449   0.69711  -0.02477
C          C       0.63860   0.44701   0.70201  -0.08930
C          C       0.61407   0.47412   0.77661  -0.13158
C          C       0.71457   0.50455   0.84807   0.13869
C          C       0.84757   0.51675   0.84338  -0.13759
C          C       0.87527   0.49396   0.76839  -0.09571
C          C       0.47561   0.25263   0.27051  -0.08925
C          C       0.43852   0.27605   0.20726  -0.13690
C          C       0.68174   0.99436   0.31267  -0.02932
C          C       0.62010   0.80492   0.18598   0.14173
C          C       0.54827   0.78323   0.24862  -0.13539
C          C       0.57746   0.87677   0.31081  -0.08855
C          C       0.93329   0.24602   0.68509  -0.03031
C          C       0.07519   0.26917   0.69259  -0.08759
C          C       0.16344   0.30111   0.76734  -0.13232
C          C       0.11575   0.31623   0.83750   0.14238
C          C       0.97070   0.28888   0.82937  -0.13716
C          C       0.87907   0.25234   0.75329  -0.09552
C          C       0.50256   0.49821   0.02583   0.33322
C          C       0.58725   0.70618   0.12466  -0.08698
C          C       0.55165   0.61454   0.07716  -0.11017
C          C       0.34281   0.42102   0.96877  -0.10520
C          C       0.22647   0.36804   0.91303  -0.08913
C          C       0.66848   0.51460   0.92008  -0.08893
C          C       0.60516   0.51359   0.97312  -0.10687
C          C       0.52326   0.41165   0.13344  -0.08731
C          C       0.50924   0.44447   0.08120  -0.10981
C          C       0.85322   0.22908   0.60694   0.58360
C          C       0.71119   0.09274   0.38038   0.58092
C          C       0.67319   0.30834   0.38886   0.58536
C          C       0.77088   0.39951   0.61555   0.58267
O          O       0.70773   0.17733   0.59056  -0.53494
O          O       0.94318   0.27501   0.56274  -0.55184
O          O       0.60830   0.05838   0.41967  -0.54502
O          O       0.83250   0.20163   0.39450  -0.53534
O          O       0.56419   0.21100   0.39757  -0.54145
O          O       0.81958   0.38441   0.43045  -0.54652
O          O       0.63261   0.30890   0.56520  -0.55265
O          O       0.90122   0.43721   0.60201  -0.53036

