data_crystal

_audit_creation_method 'AiiDA-DDEC plugin'

_cell_length_a         7.91277
_cell_length_b        10.04528
_cell_length_c        12.51568

_cell_angle_alpha     103.46943
_cell_angle_beta     91.64910
_cell_angle_gamma     113.10389

_symmetry_space_group_name_Hall 'P 1'
_symmetry_space_group_name_H-M  'P 1'

loop_
_symmetry_equiv_pos_as_xyz
 'x,y,z'

loop_
_atom_site_label
_atom_site_type_symbol
_atom_site_fract_x
_atom_site_fract_y
_atom_site_fract_z
_atom_site_charge
Mn         Mn      0.96342   0.28606   0.46479   0.95797
Mn         Mn      0.03658   0.71394   0.53521   0.95795
H          H       0.48106   0.81653   0.47484   0.12607
H          H       0.65400   0.88259   0.16318   0.11563
H          H       0.23648   0.45488   0.17969   0.11149
H          H       0.48572   0.68283   0.99125   0.08594
H          H       0.25185   0.37233   0.01932   0.08681
H          H       0.88375   0.15157   0.66700   0.11192
H          H       0.01322   0.20927   0.86452   0.12628
H          H       0.44554   0.61161   0.81973   0.12280
H          H       0.29876   0.53863   0.62707   0.10371
H          H       0.51894   0.18347   0.52516   0.12603
H          H       0.34600   0.11741   0.83682   0.11569
H          H       0.76352   0.54511   0.82031   0.11150
H          H       0.51427   0.31717   0.00875   0.08600
H          H       0.74815   0.62766   0.98068   0.08669
H          H       0.11625   0.84843   0.33301   0.11192
H          H       0.98677   0.79073   0.13548   0.12617
H          H       0.55445   0.38839   0.18028   0.12284
H          H       0.70124   0.46137   0.37293   0.10386
C          C       0.22377   0.53163   0.39877   0.57451
C          C       0.34055   0.62787   0.33178  -0.05038
C          C       0.46785   0.77365   0.38553  -0.10348
C          C       0.58024   0.86471   0.32383  -0.01961
C          C       0.72081   0.01887   0.38002   0.55130
C          C       0.56456   0.80907   0.20904  -0.14018
C          C       0.44563   0.66016   0.15474   0.06752
C          C       0.33186   0.57095   0.21703  -0.15078
C          C       0.47389   0.60062   0.03805  -0.05804
C          C       0.34689   0.43835   0.97069  -0.08392
C          C       0.00743   0.25274   0.70511   0.09270
C          C       0.08136   0.28654   0.81536  -0.18712
C          C       0.24449   0.41526   0.86072   0.13003
C          C       0.32056   0.50854   0.79139  -0.17783
C          C       0.24059   0.46775   0.68200   0.09588
C          C       0.77623   0.46836   0.60123   0.57481
C          C       0.65945   0.37213   0.66822  -0.05039
C          C       0.53215   0.22635   0.61447  -0.10360
C          C       0.41976   0.13529   0.67617  -0.01960
C          C       0.27918   0.98112   0.61999   0.55121
C          C       0.43543   0.19093   0.79096  -0.14002
C          C       0.55437   0.33984   0.84526   0.06734
C          C       0.66813   0.42904   0.78297  -0.15082
C          C       0.52611   0.39938   0.96195  -0.05792
C          C       0.65311   0.56165   0.02931  -0.08384
C          C       0.99257   0.74726   0.29489   0.09254
C          C       0.91864   0.71346   0.18465  -0.18716
C          C       0.75551   0.58473   0.13928   0.13001
C          C       0.67944   0.49146   0.20861  -0.17777
C          C       0.75941   0.53224   0.31800   0.09577
N          N       0.08778   0.34036   0.63747  -0.26787
N          N       0.91222   0.65963   0.36254  -0.26765
O          O       0.15386   0.38898   0.36161  -0.52470
O          O       0.19965   0.59719   0.49479  -0.58111
O          O       0.77490   0.05388   0.48375  -0.56161
O          O       0.78645   0.11362   0.32242  -0.55394
O          O       0.84613   0.61101   0.63839  -0.52481
O          O       0.80035   0.40280   0.50521  -0.58130
O          O       0.22510   0.94611   0.51625  -0.56174
O          O       0.21355   0.88637   0.67759  -0.55371

