data_crystal

_audit_creation_method 'AiiDA-DDEC plugin'

_cell_length_a         9.75669
_cell_length_b        11.36235
_cell_length_c        11.36242

_cell_angle_alpha     69.01854
_cell_angle_beta     89.36431
_cell_angle_gamma     89.36430

_symmetry_space_group_name_Hall 'P 1'
_symmetry_space_group_name_H-M  'P 1'

loop_
_symmetry_equiv_pos_as_xyz
 'x,y,z'

loop_
_atom_site_label
_atom_site_type_symbol
_atom_site_fract_x
_atom_site_fract_y
_atom_site_fract_z
_atom_site_charge
Gd         Gd      0.10584   0.00060   0.34217   2.21928
Gd         Gd      0.00318   0.51981   0.22949   2.22241
Gd         Gd      0.39416   0.65783  -0.00060   2.21926
Gd         Gd      0.49682   0.77051   0.48019   2.22242
Gd         Gd      0.89416  -0.00060   0.65783   2.21922
Gd         Gd     -0.00318   0.48019   0.77051   2.22247
Gd         Gd      0.60584   0.34217   0.00061   2.21926
Gd         Gd      0.50318   0.22949   0.51982   2.22232
H          H       0.25603   0.82413   0.69413   0.06950
H          H       0.24396   0.30587   0.17586   0.06938
H          H       0.74397   0.17586   0.30587   0.06940
H          H       0.75604   0.69412   0.82415   0.06938
C          C       0.21692   0.87414   0.59893   0.57227
C          C       0.28307   0.40107   0.12586   0.57243
C          C       0.78308   0.12586   0.40107   0.57213
C          C       0.71693   0.59893   0.87414   0.57234
S          S       0.96224   0.27117   0.09527   1.57582
S          S       0.86341   0.75301   0.51571   1.57695
S          S       0.53777   0.90473   0.72883   1.57548
S          S       0.63660   0.48430   0.24700   1.57693
S          S       0.03776   0.72883   0.90474   1.57594
S          S       0.13659   0.24699   0.48430   1.57701
S          S       0.46223   0.09527   0.27117   1.57544
S          S       0.36341   0.51570   0.75301   1.57696
S          S       0.25000   0.75739   0.24261   1.59714
S          S       0.75001   0.24261   0.75739   1.59709
O          O       0.72767   0.73344   0.46362  -0.76388
O          O       0.10398   0.93389   0.58309  -0.69259
O          O       0.95748   0.82360   0.41035  -0.74502
O          O       0.03623   0.14890   0.15474  -0.72720
O          O       0.96512   0.34491   0.18182  -0.80443
O          O       0.28375   0.87157   0.50218  -0.71191
O          O       0.81876   0.24491   0.07224  -0.73162
O          O       0.03496   0.34533   0.97451  -0.77997
O          O       0.14955   0.65073   0.27399  -0.79390
O          O       0.92482   0.62502   0.58385  -0.77149
O          O       0.17334   0.87539   0.22776  -0.72556
O          O       0.83978   0.82035   0.60575  -0.78712
O          O       0.77234   0.53638   0.26657  -0.76373
O          O       0.39603   0.41691   0.06611  -0.69275
O          O       0.54252   0.58965   0.17640  -0.74507
O          O       0.46377   0.84526   0.85111  -0.72709
O          O       0.53488   0.81817   0.65510  -0.80440
O          O       0.21625   0.49784   0.12841  -0.71181
O          O       0.68124   0.92776   0.75509  -0.73141
O          O       0.46504   0.02548   0.65466  -0.78002
O          O       0.35046   0.72601   0.34927  -0.79389
O          O       0.57518   0.41616   0.37498  -0.77146
O          O       0.32667   0.77224   0.12460  -0.72571
O          O       0.66023   0.39425   0.17965  -0.78716
O          O       0.27234   0.26656   0.53638  -0.76375
O          O       0.89602   0.06611   0.41691  -0.69251
O          O       0.04252   0.17639   0.58965  -0.74495
O          O       0.96377   0.85110   0.84526  -0.72731
O          O       0.03488   0.65509   0.81819  -0.80448
O          O       0.71625   0.12843   0.49783  -0.71181
O          O       0.18124   0.75509   0.92776  -0.73159
O          O       0.96504   0.65467   0.02549  -0.77993
O          O       0.85046   0.34927   0.72602  -0.79395
O          O       0.07518   0.37498   0.41616  -0.77160
O          O       0.82667   0.12461   0.77224  -0.72545
O          O       0.16022   0.17965   0.39426  -0.78717
O          O       0.22767   0.46362   0.73344  -0.76380
O          O       0.60397   0.58309   0.93390  -0.69269
O          O       0.45748   0.41035   0.82361  -0.74494
O          O       0.53623   0.15474   0.14890  -0.72719
O          O       0.46512   0.18183   0.34490  -0.80428
O          O       0.78375   0.50216   0.87160  -0.71181
O          O       0.31877   0.07224   0.24492  -0.73158
O          O       0.53496   0.97452   0.34534  -0.77985
O          O       0.64954   0.27399   0.65073  -0.79401
O          O       0.42482   0.58384   0.62502  -0.77165
O          O       0.67334   0.22776   0.87540  -0.72559
O          O       0.33978   0.60574   0.82035  -0.78717

