data_crystal

_audit_creation_method 'AiiDA-DDEC plugin'

_cell_length_a         6.45168
_cell_length_b         7.32991
_cell_length_c         8.16865

_cell_angle_alpha     90.74394
_cell_angle_beta     109.80768
_cell_angle_gamma     91.33630

_symmetry_space_group_name_Hall 'P 1'
_symmetry_space_group_name_H-M  'P 1'

loop_
_symmetry_equiv_pos_as_xyz
 'x,y,z'

loop_
_atom_site_label
_atom_site_type_symbol
_atom_site_fract_x
_atom_site_fract_y
_atom_site_fract_z
_atom_site_charge
Ni         Ni      0.00356   0.49912   0.00310   0.96756
Ni         Ni      0.50471   0.00104   0.00304   1.03811
H          H       0.43951   0.82881   0.53774   0.13608
H          H       0.56095   0.17139   0.46440   0.13621
C          C       0.57197   0.67110   0.83995   0.58828
C          C       0.53852   0.57720   0.66828  -0.04973
C          C       0.57239   0.38976   0.64890  -0.04156
C          C       0.46660   0.68482   0.52013  -0.09363
C          C       0.63643   0.26366   0.79951   0.60198
C          C       0.43438   0.32970   0.16341   0.58867
C          C       0.46343   0.42322   0.33437  -0.05128
C          C       0.42937   0.61070   0.35364  -0.04491
C          C       0.53356   0.31528   0.48229  -0.09442
C          C       0.36828   0.73722   0.20326   0.60238
O          O       0.42957   0.78950   0.83702  -0.52651
O          O       0.73501   0.63902   0.97657  -0.56434
O          O       0.82439   0.27851   0.91982  -0.53976
O          O       0.49491   0.13848   0.79466  -0.51218
O          O       0.57914   0.21294   0.16765  -0.52787
O          O       0.27142   0.36033   0.02622  -0.56200
O          O       0.18119   0.72157   0.08192  -0.53856
O          O       0.51062   0.86225   0.20944  -0.51250

