data_crystal

_audit_creation_method 'AiiDA-DDEC plugin'

_cell_length_a        10.59235
_cell_length_b        10.69550
_cell_length_c        11.49995

_cell_angle_alpha     82.57604
_cell_angle_beta     73.91649
_cell_angle_gamma     69.52518

_symmetry_space_group_name_Hall 'P 1'
_symmetry_space_group_name_H-M  'P 1'

loop_
_symmetry_equiv_pos_as_xyz
 'x,y,z'

loop_
_atom_site_label
_atom_site_type_symbol
_atom_site_fract_x
_atom_site_fract_y
_atom_site_fract_z
_atom_site_charge
Pr         Pr      0.58557   0.59332   0.63422   2.04652
Pr         Pr      0.41465   0.40717   0.36577   2.05066
Cu         Cu      0.00021   0.49991   0.50005   0.97183
H          H       0.36033   0.98996   0.46919   0.14036
H          H       0.98228   0.17599   0.35244   0.13709
H          H       0.17946   0.75156   0.33647   0.13502
H          H       0.67383   0.48184   0.94421   0.14407
H          H       0.91504   0.32391   0.20851   0.14125
H          H       0.12216   0.33581   0.83032   0.14568
H          H       0.63955   0.01010   0.53089   0.14017
H          H       0.01776   0.82409   0.64748   0.13636
H          H       0.82042   0.24844   0.66357   0.13497
H          H       0.32645   0.51826   0.05551   0.14471
H          H       0.08537   0.67579   0.79145   0.14069
H          H       0.87830   0.66410   0.16931   0.14628
C          C       0.28078   0.85676   0.40779  -0.03724
C          C       0.28025   0.98281   0.43126  -0.06596
C          C       0.17378   0.09820   0.41046  -0.02273
C          C       0.06834   0.08850   0.36490  -0.10962
C          C       0.07397   0.96420   0.33694   0.05263
C          C       0.17867   0.84781   0.35719  -0.09822
C          C       0.38847   0.73204   0.43836   0.67200
C          C       0.16630   0.23496   0.43493   0.63752
C          C       0.89759   0.41535   0.87330  -0.03416
C          C       0.77462   0.43846   0.96537  -0.06736
C          C       0.78181   0.40396   0.08574  -0.01367
C          C       0.91032   0.34887   0.11495  -0.10735
C          C       0.03092   0.32529   0.02160   0.04784
C          C       0.02668   0.35681   0.90132  -0.10624
C          C       0.89535   0.45174   0.74401   0.63206
C          C       0.65224   0.41836   0.18366   0.56842
C          C       0.71888   0.14318   0.59202  -0.03526
C          C       0.71965   0.01712   0.56883  -0.06582
C          C       0.82626   0.90189   0.58959  -0.02373
C          C       0.93158   0.91162   0.63526  -0.11149
C          C       0.92575   0.03603   0.66308   0.05371
C          C       0.82096   0.15238   0.64268  -0.09832
C          C       0.61221   0.26749   0.55959   0.66852
C          C       0.83350   0.76523   0.56529   0.63874
C          C       0.10258   0.58453   0.12614  -0.03439
C          C       0.22583   0.56176   0.03424  -0.06658
C          C       0.21932   0.59569   0.91371  -0.01483
C          C       0.09055   0.65085   0.88481  -0.10579
C          C       0.96975   0.67454   0.97796   0.04829
C          C       0.97368   0.64314   0.09821  -0.10488
C          C       0.10428   0.54842   0.25554   0.63082
C          C       0.34841   0.58269   0.81541   0.56694
N          N       0.96294   0.95676   0.28671   0.51758
N          N       0.16751   0.26680   0.05029   0.52150
N          N       0.03696   0.04328   0.71333   0.51713
N          N       0.83285   0.73308   0.94956   0.51948
O          O       0.38567   0.61915   0.41470  -0.70306
O          O       0.47503   0.74294   0.49049  -0.63370
O          O       0.27640   0.25902   0.43270  -0.68627
O          O       0.04281   0.31822   0.45884  -0.54684
O          O       0.87647   0.06299   0.26221  -0.33020
O          O       0.96214   0.84358   0.27367  -0.32227
O          O       0.01106   0.44410   0.66890  -0.52438
O          O       0.77951   0.48607   0.71448  -0.71578
O          O       0.53361   0.46057   0.15849  -0.61296
O          O       0.66353   0.38109   0.29210  -0.62848
O          O       0.16859   0.25192   0.15936  -0.34843
O          O       0.27290   0.23752   0.96504  -0.31837
O          O       0.61699   0.38032   0.58133  -0.70248
O          O       0.52487   0.25632   0.50843  -0.63445
O          O       0.72283   0.74181   0.56722  -0.68789
O          O       0.95661   0.68180   0.54114  -0.54729
O          O       0.12350   0.93703   0.73770  -0.33174
O          O       0.03791   0.15640   0.72634  -0.32196
O          O       0.98866   0.55599   0.33096  -0.52288
O          O       0.22027   0.51397   0.28476  -0.71478
O          O       0.46775   0.54143   0.84011  -0.60946
O          O       0.33628   0.61776   0.70714  -0.61774
O          O       0.83144   0.74803   0.84055  -0.34806
O          O       0.72764   0.76237   0.03489  -0.31570

