data_crystal

_audit_creation_method 'AiiDA-DDEC plugin'

_cell_length_a        11.30724
_cell_length_b        11.33127
_cell_length_c        10.14701

_cell_angle_alpha     56.30090
_cell_angle_beta     65.45015
_cell_angle_gamma     65.81829

_symmetry_space_group_name_Hall 'P 1'
_symmetry_space_group_name_H-M  'P 1'

loop_
_symmetry_equiv_pos_as_xyz
 'x,y,z'

loop_
_atom_site_label
_atom_site_type_symbol
_atom_site_fract_x
_atom_site_fract_y
_atom_site_fract_z
_atom_site_charge
Zn         Zn      0.00059   0.01814   0.98032   0.80198
Zn         Zn      0.89945   0.24744   0.69098   0.04897
Zn         Zn      0.99359   0.49638   0.00794   0.80799
H          H       0.86929   0.11194   0.24994   0.11552
H          H       0.63985   0.18151   0.40368   0.12415
H          H       0.49487   0.10687   0.12807   0.14049
H          H       0.72925   0.03031   0.99582   0.09398
H          H       0.44915   0.25063   0.51066   0.11696
H          H       0.79460   0.67705   0.35035   0.09405
H          H       0.93029   0.76522   0.60192   0.10490
H          H       0.70521   0.84711   0.74205   0.12409
H          H       0.28091   0.42984   0.82807   0.10590
H          H       0.50462   0.42943   0.81569   0.12027
H          H       0.30577   0.59252   0.17162   0.12240
H          H       0.09152   0.59115   0.16247   0.11268
H          H       0.14048   0.90197   0.73472   0.10937
H          H       0.36953   0.82436   0.58945   0.12587
H          H       0.51475   0.90006   0.86332   0.13831
H          H       0.27960   0.98647   0.98723   0.10881
H          H       0.55864   0.75116   0.48570   0.11269
H          H       0.21034   0.32286   0.64481   0.10326
H          H       0.08320   0.23962   0.38070   0.09804
H          H       0.30944   0.16214   0.24093   0.13028
H          H       0.70672   0.59381   0.15337   0.10882
H          H       0.48214   0.60192   0.16025   0.12139
H          H       0.68163   0.40831   0.83239   0.08778
H          H       0.89583   0.40675   0.84363   0.09368
C          C       0.78297   0.10982   0.23007   0.10458
C          C       0.65325   0.15050   0.31352  -0.17713
C          C       0.54381   0.15226   0.27998   0.10521
C          C       0.57333   0.10891   0.16181  -0.16566
C          C       0.70516   0.06773   0.08445   0.07611
C          C       0.40373   0.19859   0.36232   0.08336
C          C       0.37155   0.24701   0.47699  -0.18245
C          C       0.23797   0.28897   0.55186   0.08261
C          C       0.84619   0.76411   0.57648   0.08919
C          C       0.71637   0.81075   0.65722  -0.17775
C          C       0.29232   0.46665   0.89984   0.09703
C          C       0.41690   0.46609   0.89536  -0.17220
C          C       0.42738   0.50996   0.99433   0.09587
C          C       0.30736   0.55674   0.09120  -0.17453
C          C       0.18607   0.55524   0.08892   0.10253
C          C       0.22633   0.90364   0.75630   0.09583
C          C       0.35628   0.85770   0.67746  -0.17563
C          C       0.46670   0.85499   0.71077   0.10669
C          C       0.43625   0.90014   0.82766  -0.17640
C          C       0.30401   0.94719   0.90035   0.08538
C          C       0.60687   0.80729   0.62827   0.07432
C          C       0.63717   0.75654   0.51625  -0.18767
C          C       0.77022   0.71374   0.43995   0.07915
C          C       0.16636   0.24111   0.40766   0.08508
C          C       0.29667   0.19610   0.32853  -0.17356
C          C       0.69492   0.55224   0.08662   0.08904
C          C       0.56989   0.55639   0.08851  -0.17464
C          C       0.55904   0.50561   0.99648   0.10025
C          C       0.67932   0.45104   0.90679  -0.17117
C          C       0.80096   0.44946   0.91121   0.09427
S          S       0.88993   0.78279   0.96009   1.38338
S          S       0.11615   0.21460   0.04787   1.38105
N          N       0.80906   0.06881   0.11679  -0.23130
N          N       0.13610   0.28693   0.51750  -0.23080
N          N       0.17828   0.50916   0.99604  -0.21240
N          N       0.19921   0.94978   0.86571  -0.22515
N          N       0.87518   0.71636   0.46853  -0.27417
N          N       0.80965   0.49981  -0.00084  -0.20950
O          O       0.95800   0.86445   0.97462  -0.69785
O          O       0.97599   0.74493   0.82275  -0.66068
O          O       0.88733   0.63734   0.11845  -0.65965
O          O       0.75296   0.86677   0.94038  -0.63762
O          O       0.06505   0.09938   0.06832  -0.67409
O          O       0.02464   0.26263   0.17817  -0.65850
O          O       0.10145   0.35042   0.88515  -0.66683
O          O       0.25673   0.15376   0.05956  -0.63623

