data_crystal

_audit_creation_method 'AiiDA-DDEC plugin'

_cell_length_a         7.43510
_cell_length_b         9.12589
_cell_length_c        19.38308

_cell_angle_alpha     89.97252
_cell_angle_beta     90.00000
_cell_angle_gamma     90.00000

_symmetry_space_group_name_Hall 'P 1'
_symmetry_space_group_name_H-M  'P 1'

loop_
_symmetry_equiv_pos_as_xyz
 'x,y,z'

loop_
_atom_site_label
_atom_site_type_symbol
_atom_site_fract_x
_atom_site_fract_y
_atom_site_fract_z
_atom_site_charge
Sc         Sc      0.64250   0.50247   0.49949   1.87828
Sc         Sc      0.14250   0.49752   0.50051   1.87828
Sc         Sc      0.64138  -0.00008  -0.00068   1.87961
Sc         Sc      0.14138   0.00007   0.00068   1.87954
H          H       0.11690   0.23190   0.68305   0.12441
H          H       0.11633   0.15799   0.80797   0.12024
H          H       0.66782   0.29317   0.82620   0.12521
H          H       0.66788   0.36790   0.70142   0.12115
H          H       0.38877   0.71273   0.49284   0.43491
H          H       0.61690   0.76809   0.31695   0.12433
H          H       0.61633   0.84200   0.19203   0.12020
H          H       0.16782   0.70682   0.17380   0.12523
H          H       0.16788   0.63209   0.29858   0.12121
H          H       0.88877   0.28727   0.50716   0.43526
H          H       0.11647   0.26828   0.18388   0.12541
H          H       0.11754   0.34257   0.30881   0.12062
H          H       0.66902   0.20663   0.32626   0.12470
H          H       0.66760   0.13180   0.20140   0.11976
H          H       0.38864   0.78841   0.99287   0.43356
H          H       0.61647   0.73172   0.81612   0.12543
H          H       0.61754   0.65743   0.69119   0.12065
H          H       0.16902   0.79336   0.67374   0.12475
H          H       0.16760   0.86820   0.79860   0.11964
H          H       0.88864   0.21159   0.00713   0.43351
C          C       0.39414   0.35067   0.61124   0.64905
C          C       0.39289   0.30339   0.68508  -0.03776
C          C       0.23626   0.24492   0.71484  -0.09396
C          C       0.23584   0.20449   0.78419  -0.09561
C          C       0.39183   0.22208   0.82428  -0.03811
C          C       0.54827   0.28070   0.79450  -0.09309
C          C       0.54851   0.32143   0.72526  -0.09839
C          C       0.39329   0.17282   0.89778   0.64805
C          C       0.89414   0.64933   0.38876   0.64896
C          C       0.89289   0.69661   0.31492  -0.03782
C          C       0.73626   0.75507   0.28516  -0.09391
C          C       0.73584   0.79550   0.21581  -0.09561
C          C       0.89183   0.77792   0.17572  -0.03816
C          C       0.04827   0.71930   0.20550  -0.09308
C          C       0.04851   0.67856   0.27474  -0.09828
C          C       0.89329   0.82717   0.10222   0.64809
C          C       0.39085   0.14888   0.11193   0.64119
C          C       0.39216   0.19658   0.18563  -0.03529
C          C       0.23601   0.25526   0.21558  -0.09651
C          C       0.23661   0.29591   0.28481  -0.09432
C          C       0.39327   0.27824   0.32449  -0.04363
C          C       0.54932   0.21932   0.29461  -0.09192
C          C       0.54854   0.17844   0.22540  -0.09667
C          C       0.39417   0.32764   0.39785   0.65045
C          C       0.89085   0.85112   0.88807   0.64120
C          C       0.89216   0.80342   0.81437  -0.03532
C          C       0.73601   0.74473   0.78442  -0.09657
C          C       0.73661   0.70409   0.71519  -0.09423
C          C       0.89327   0.72176   0.67551  -0.04357
C          C       0.04932   0.78067   0.70539  -0.09206
C          C       0.04854   0.82155   0.77460  -0.09660
C          C       0.89417   0.67236   0.60215   0.65049
O          O       0.54622   0.37732   0.58358  -0.64827
O          O       0.24326   0.36289   0.58026  -0.65346
O          O       0.24231   0.14836   0.92684  -0.64979
O          O       0.54572   0.15582   0.92718  -0.64942
O          O       0.39103   0.60670   0.49630  -1.04365
O          O       0.04622   0.62267   0.41642  -0.64824
O          O       0.74326   0.63711   0.41974  -0.65344
O          O       0.74231   0.85164   0.07316  -0.64977
O          O       0.04572   0.84417   0.07282  -0.64943
O          O       0.89103   0.39329   0.50370  -1.04397
O          O       0.54268   0.12570   0.08312  -0.64724
O          O       0.23800   0.13283   0.08272  -0.64829
O          O       0.24246   0.34865   0.42686  -0.64736
O          O       0.54610   0.34773   0.42714  -0.65167
O          O       0.39083   0.89446   0.99627  -1.04211
O          O       0.04268   0.87430   0.91688  -0.64721
O          O       0.73800   0.86716   0.91728  -0.64828
O          O       0.74246   0.65135   0.57314  -0.64742
O          O       0.04610   0.65226   0.57286  -0.65169
O          O       0.89083   0.10553   0.00372  -1.04216

