data_crystal

_audit_creation_method 'AiiDA-DDEC plugin'

_cell_length_a         7.96007
_cell_length_b        12.88670
_cell_length_c        12.89033

_cell_angle_alpha     116.00656
_cell_angle_beta     101.95654
_cell_angle_gamma     102.18824

_symmetry_space_group_name_Hall 'P 1'
_symmetry_space_group_name_H-M  'P 1'

loop_
_symmetry_equiv_pos_as_xyz
 'x,y,z'

loop_
_atom_site_label
_atom_site_type_symbol
_atom_site_fract_x
_atom_site_fract_y
_atom_site_fract_z
_atom_site_charge
Cu         Cu      0.74948   0.41842   0.47220   0.78478
Cu         Cu      0.27706   0.52676   0.94592   0.78463
Cu         Cu      0.33239   0.05389   0.58108   0.77990
Cu         Cu      0.25051   0.58158   0.52780   0.78491
Cu         Cu      0.72293   0.47323   0.05408   0.78459
Cu         Cu      0.66760   0.94610   0.41893   0.78005
H          H       0.26825   0.48970   0.23316   0.32188
H          H       0.12314   0.51766   0.14003   0.30434
H          H       0.03945   0.76858   0.25976   0.32445
H          H       0.98724   0.85910   0.38282   0.30313
H          H       0.78201   0.74560   0.51358   0.32379
H          H       0.60673   0.62242   0.48146   0.30425
H          H       0.73174   0.51029   0.76684   0.32187
H          H       0.87685   0.48234   0.85998   0.30442
H          H       0.96054   0.23142   0.74024   0.32461
H          H       0.01275   0.14090   0.61719   0.30324
H          H       0.21798   0.25440   0.48642   0.32401
H          H       0.39326   0.37758   0.51854   0.30418
C          C       0.02700   0.50116   0.26499   0.54536
C          C       0.75986   0.45968   0.28040   0.17039
C          C       0.56409   0.43256   0.27088   0.52452
C          C       0.76514   0.73584   0.23805   0.54712
C          C       0.48257   0.71980   0.17989   0.16993
C          C       0.29678   0.72933   0.16237   0.52320
C          C       0.52861   0.76516   0.50100   0.54837
C          C       0.30365   0.82167   0.54280   0.17086
C          C       0.13553   0.83879   0.57019   0.52368
C          C       0.97299   0.49884   0.73502   0.54544
C          C       0.24013   0.54032   0.71960   0.17025
C          C       0.43590   0.56744   0.72912   0.52464
C          C       0.23485   0.26416   0.76195   0.54741
C          C       0.51742   0.28020   0.82011   0.16972
C          C       0.70321   0.27066   0.83763   0.52353
C          C       0.47138   0.23483   0.49900   0.54832
C          C       0.69634   0.17832   0.45720   0.17064
C          C       0.86446   0.16121   0.42981   0.52375
N          N       0.04723   0.49883   0.37146  -0.30648
N          N       0.16539   0.52631   0.22457  -0.62926
N          N       0.87579   0.47109   0.37802  -0.22866
N          N       0.84784   0.47781   0.20660  -0.44039
N          N       0.67810   0.62945   0.12806  -0.30828
N          N       0.94425   0.77609   0.30432  -0.63229
N          N       0.50019   0.62263   0.09286  -0.22675
N          N       0.64467   0.79372   0.27303  -0.43815
N          N       0.55084   0.87400   0.50329  -0.30844
N          N       0.64183   0.69993   0.47565  -0.63158
N          N       0.40769   0.90809   0.53125  -0.22447
N          N       0.37340   0.72986   0.52456  -0.44112
N          N       0.95276   0.50116   0.62854  -0.30625
N          N       0.83460   0.47369   0.77543  -0.62908
N          N       0.12420   0.52891   0.62198  -0.22909
N          N       0.15215   0.52219   0.79340  -0.44022
N          N       0.32189   0.37054   0.87194  -0.30817
N          N       0.05574   0.22391   0.69568  -0.63254
N          N       0.49980   0.37736   0.90714  -0.22663
N          N       0.35532   0.20628   0.72698  -0.43829
N          N       0.44915   0.12600   0.49671  -0.30800
N          N       0.35816   0.30007   0.52435  -0.63158
N          N       0.59230   0.09190   0.46875  -0.22445
N          N       0.62659   0.27014   0.47544  -0.44120
O          O       0.53258   0.41667   0.35970  -0.56417
O          O       0.44880   0.43064   0.18813  -0.48241
O          O       0.17478   0.64018   0.05716  -0.56244
O          O       0.26608   0.81250   0.24387  -0.48457
O          O       0.11799   0.94255   0.58399  -0.56170
O          O       0.02364   0.75839   0.57403  -0.48351
O          O       0.46741   0.58333   0.64031  -0.56454
O          O       0.55119   0.56936   0.81188  -0.48240
O          O       0.82521   0.35982   0.94284  -0.56266
O          O       0.73391   0.18750   0.75613  -0.48474
O          O       0.88201   0.05744   0.41601  -0.56184
O          O       0.97635   0.24161   0.42598  -0.48383

