data_crystal

_audit_creation_method 'AiiDA-DDEC plugin'

_cell_length_a         6.97329
_cell_length_b        15.12766
_cell_length_c        15.11471

_cell_angle_alpha     117.68684
_cell_angle_beta     98.85615
_cell_angle_gamma     98.83170

_symmetry_space_group_name_Hall 'P 1'
_symmetry_space_group_name_H-M  'P 1'

loop_
_symmetry_equiv_pos_as_xyz
 'x,y,z'

loop_
_atom_site_label
_atom_site_type_symbol
_atom_site_fract_x
_atom_site_fract_y
_atom_site_fract_z
_atom_site_charge
Co         Co      0.70767   0.32221   0.73916   1.00604
Co         Co      0.96670   0.26076   0.58233   1.00482
Co         Co      0.38487   0.41720   0.67795   1.00384
Co         Co      0.29224   0.67792   0.26097   1.00554
Co         Co      0.03311   0.73916   0.41769   1.00407
Co         Co      0.61508   0.58267   0.32200   1.00385
H          H       0.13300   0.97706   0.45051   0.14437
H          H       0.68322   0.54963   0.52733   0.14391
H          H       0.15542   0.47275   0.02212   0.14513
H          H       0.86717   0.02297   0.54968   0.14442
H          H       0.31671   0.45022   0.47255   0.14430
H          H       0.84461   0.52718   0.97787   0.14534
C          C       0.63086   0.10043   0.56550   0.29230
C          C       0.41899   0.08724   0.53719  -0.14253
C          C       0.29414   0.98739   0.47282  -0.19379
C          C       0.32452   0.17561   0.56721   0.62424
C          C       0.06535   0.43390   0.53430   0.29202
C          C       0.88224   0.46247   0.54990  -0.14465
C          C       0.82191   0.52737   0.51510  -0.19201
C          C       0.75811   0.43256   0.60833   0.62595
C          C       0.53127   0.46561   0.89956   0.29302
C          C       0.33251   0.45022   0.91255  -0.14553
C          C       0.30661   0.48507   0.01231  -0.19291
C          C       0.15018   0.39175   0.82404   0.62055
C          C       0.36921   0.89960   0.43470   0.29187
C          C       0.58109   0.91278   0.46299  -0.14209
C          C       0.70599   0.01264   0.52736  -0.19396
C          C       0.67554   0.82439   0.43286   0.62452
C          C       0.93466   0.56602   0.46568   0.29192
C          C       0.11778   0.53746   0.45009  -0.14429
C          C       0.17808   0.47253   0.48485  -0.19237
C          C       0.24190   0.56741   0.39169   0.62519
C          C       0.46877   0.53443   0.10050   0.29319
C          C       0.66754   0.54983   0.08750  -0.14483
C          C       0.69345   0.51494   0.98774  -0.19323
C          C       0.84988   0.60824   0.17597   0.62026
N          N       0.61742   0.25119   0.81370  -0.05040
N          N       0.57823   0.21458   0.86090   0.04433
N          N       0.80329   0.18614   0.43686  -0.04894
N          N       0.71632   0.13856   0.35309   0.04217
N          N       0.36595   0.56292   0.74876  -0.04501
N          N       0.36298   0.64665   0.78559   0.04007
N          N       0.38246   0.74886   0.18638  -0.05075
N          N       0.42176   0.78536   0.13910   0.04486
N          N       0.19652   0.81383   0.56332  -0.04836
N          N       0.28369   0.86153   0.64704   0.04237
N          N       0.63417   0.43712   0.25122  -0.04630
N          N       0.63681   0.35334   0.21435   0.04058
O          O       0.76352   0.19332   0.62729  -0.58984
O          O       0.43908   0.26829   0.62095  -0.59659
O          O       0.13476   0.15615   0.53618  -0.53657
O          O       0.13624   0.37159   0.56464  -0.58866
O          O       0.81919   0.37898   0.64745  -0.59852
O          O       0.59959   0.46365   0.61998  -0.53794
O          O       0.57187   0.43507   0.80680  -0.58872
O          O       0.17163   0.35273   0.73122  -0.59321
O          O       0.98021   0.37992   0.84367  -0.53699
O          O       0.23650   0.80672   0.37298  -0.58938
O          O       0.56098   0.73172   0.37907  -0.59691
O          O       0.86531   0.84385   0.46388  -0.53649
O          O       0.86366   0.62836   0.43541  -0.58881
O          O       0.18082   0.62102   0.35261  -0.59827
O          O       0.40044   0.53632   0.38004  -0.53718
O          O       0.42814   0.56502   0.19326  -0.58901
O          O       0.82839   0.64727   0.26878  -0.59335
O          O       0.01985   0.62010   0.15634  -0.53665

