data_crystal

_audit_creation_method 'AiiDA-DDEC plugin'

_cell_length_a         9.94176
_cell_length_b        10.50647
_cell_length_c        13.48083

_cell_angle_alpha     68.17659
_cell_angle_beta     68.91336
_cell_angle_gamma     77.65409

_symmetry_space_group_name_Hall 'P 1'
_symmetry_space_group_name_H-M  'P 1'

loop_
_symmetry_equiv_pos_as_xyz
 'x,y,z'

loop_
_atom_site_label
_atom_site_type_symbol
_atom_site_fract_x
_atom_site_fract_y
_atom_site_fract_z
_atom_site_charge
Cd         Cd      0.01146   0.31725   0.75763   1.05227
Cd         Cd      0.98854   0.68275   0.24237   1.05224
Cd         Cd     -0.00000  -0.00000  -0.00000   1.15523
H          H       0.52863   0.26839   0.80144   0.13606
H          H       0.56340   0.10214   0.13629   0.14070
H          H       0.15110   0.13522   0.08403   0.12541
H          H       0.02189   0.75959   0.78143   0.13860
H          H       0.13858   0.74097   0.44695   0.14696
H          H       0.19365   0.10877   0.49909   0.14269
H          H       0.47136   0.73161   0.19856   0.13615
H          H       0.43660   0.89786   0.86371   0.14066
H          H       0.84890   0.86478   0.91598   0.12538
H          H       0.97812   0.24041   0.21857   0.13853
H          H       0.86142   0.25903   0.55305   0.14700
H          H       0.80635   0.89123   0.50091   0.14274
C          C       0.33087   0.20521   0.93498  -0.01998
C          C       0.47928   0.22434   0.89169  -0.06924
C          C       0.56288   0.18497   0.96477  -0.02644
C          C       0.49746   0.13266   0.08063  -0.11149
C          C       0.34837   0.11381   0.12428   0.11609
C          C       0.26584   0.14965   0.05025  -0.11946
C          C       0.24009   0.24619   0.85814   0.57166
C          C       0.72441   0.19328   0.92201   0.58624
C          C       0.28415   0.05321   0.24068   0.00449
C          C       0.23208   0.99582   0.34227  -0.05457
C          C       0.10270   0.94423   0.64797  -0.02943
C          C       0.06295   0.80904   0.69106  -0.04896
C          C       0.07758   0.73555   0.61843  -0.01275
C          C       0.12958   0.79745   0.50267  -0.09953
C          C       0.17518   0.93226   0.45847   0.14014
C          C       0.16177   0.00452   0.53263  -0.11052
C          C       0.07524   0.02729   0.72500   0.58258
C          C       0.04104   0.58944   0.66638   0.53730
C          C       0.66912   0.79479   0.06502  -0.01996
C          C       0.52072   0.77566   0.10831  -0.06919
C          C       0.43711   0.81503   0.03523  -0.02637
C          C       0.50254   0.86734   0.91938  -0.11153
C          C       0.65162   0.88619   0.87572   0.11624
C          C       0.73416   0.85035   0.94975  -0.11953
C          C       0.75990   0.75380   0.14186   0.57164
C          C       0.27559   0.80672   0.07799   0.58620
C          C       0.71583   0.94678   0.75934   0.00453
C          C       0.76792   0.00419   0.65772  -0.05451
C          C       0.89730   0.05577   0.35203  -0.02946
C          C       0.93706   0.19095   0.30894  -0.04889
C          C       0.92242   0.26445   0.38157  -0.01277
C          C       0.87041   0.20255   0.49733  -0.09953
C          C       0.82481   0.06774   0.54153   0.14005
C          C       0.83823   0.99548   0.46738  -0.11039
C          C       0.92476   0.97271   0.27500   0.58251
C          C       0.95899   0.41055   0.33362   0.53750
O          O       0.10872   0.20770   0.90215  -0.61026
O          O       0.28762   0.31755   0.75765  -0.47085
O          O       0.77935   0.26119   0.81872  -0.54502
O          O       0.79092   0.13168   0.99415  -0.58107
O          O       0.08792   0.15549   0.67474  -0.53850
O          O       0.04056   0.96295   0.82957  -0.56295
O          O       0.98792   0.53738   0.77298  -0.49762
O          O       0.06645   0.51957   0.60092  -0.49037
O          O       0.89128   0.79229   0.09785  -0.61037
O          O       0.71238   0.68244   0.24235  -0.47075
O          O       0.22066   0.73880   0.18128  -0.54490
O          O       0.20907   0.86832   0.00585  -0.58109
O          O       0.91207   0.84450   0.32526  -0.53837
O          O       0.95944   0.03704   0.17043  -0.56300
O          O       0.01218   0.46260   0.22702  -0.49783
O          O       0.93354   0.48043   0.39908  -0.49038

