data_crystal

_audit_creation_method 'AiiDA-DDEC plugin'

_cell_length_a        11.22259
_cell_length_b        11.21700
_cell_length_c        14.30202

_cell_angle_alpha     71.71216
_cell_angle_beta     71.67885
_cell_angle_gamma     85.99929

_symmetry_space_group_name_Hall 'P 1'
_symmetry_space_group_name_H-M  'P 1'

loop_
_symmetry_equiv_pos_as_xyz
 'x,y,z'

loop_
_atom_site_label
_atom_site_type_symbol
_atom_site_fract_x
_atom_site_fract_y
_atom_site_fract_z
_atom_site_charge
In         In     -0.00000  -0.00000   0.50000   1.49703
In         In      0.00000   0.00000   0.00000   1.49733
In         In      0.95650   0.04357   0.25002   1.54044
In         In      0.04350   0.95643   0.74998   1.54038
H          H       0.84637   0.90690   0.43590   0.38372
H          H       0.09311   0.15364   0.06411   0.38362
H          H       0.15362   0.09310   0.56410   0.38360
H          H       0.90688   0.84636   0.93589   0.38381
C          C       0.08595   0.27622   0.43188   0.62120
C          C       0.06748   0.41260   0.37621  -0.19810
C          C       0.94683   0.46183   0.39576   0.14804
C          C       0.92447   0.58357   0.34155   0.17231
C          C       0.02292   0.66053   0.26365  -0.22723
C          C       0.14398   0.61304   0.24403   0.16562
C          C       0.16614   0.49215   0.30091   0.16033
C          C      -0.00108   0.79081   0.20676   0.64723
C          C       0.72379   0.91403   0.06811   0.62189
C          C       0.58743   0.93251   0.12381  -0.19811
C          C       0.53819   0.05317   0.10423   0.14802
C          C       0.41644   0.07554   0.15841   0.17231
C          C       0.33946   0.97709   0.23628  -0.22699
C          C       0.38696   0.85601   0.25594   0.16525
C          C       0.50787   0.83384   0.19909   0.16044
C          C       0.20920   0.00107   0.29317   0.64759
C          C       0.91405   0.72377   0.56812   0.62128
C          C       0.93251   0.58740   0.62379  -0.19817
C          C       0.05316   0.53816   0.60424   0.14808
C          C       0.07552   0.41643   0.65845   0.17226
C          C       0.97707   0.33947   0.73635  -0.22703
C          C       0.85601   0.38696   0.75597   0.16548
C          C       0.83385   0.50785   0.69909   0.16023
C          C       0.00107   0.20919   0.79324   0.64727
C          C       0.27621   0.08596   0.93189   0.62179
C          C       0.41257   0.06749   0.87619  -0.19804
C          C       0.46181   0.94683   0.89576   0.14798
C          C       0.58355   0.92446   0.84159   0.17233
C          C       0.66053   0.02291   0.76372  -0.22693
C          C       0.61303   0.14399   0.74406   0.16527
C          C       0.49213   0.16616   0.80091   0.16040
C          C       0.79080  -0.00108   0.70683   0.64770
O          O       0.01980   0.19896   0.41506  -0.59404
O          O       0.15707   0.24884   0.48650  -0.49497
O          O       0.04961   0.83026   0.10994  -0.53082
O          O       0.92742   0.85305   0.26348  -0.59340
O          O       0.87256  -0.00095   0.40745  -0.83197
O          O       0.80103   0.98017   0.08495  -0.59428
O          O       0.75116   0.84290   0.01343  -0.49529
O          O       0.16973   0.95038   0.38999  -0.53090
O          O       0.14697   0.07256   0.23649  -0.59372
O          O       0.00097   0.12746   0.09260  -0.83205
O          O       0.98020   0.80103   0.58494  -0.59433
O          O       0.84292   0.75115   0.51350  -0.49468
O          O       0.95038   0.16974   0.89006  -0.53091
O          O       0.07258   0.14694   0.73652  -0.59348
O          O       0.12744   0.00094   0.59255  -0.83188
O          O       0.19897   0.01983   0.91504  -0.59400
O          O       0.24884   0.15710   0.98657  -0.49540
O          O       0.83027   0.04962   0.61001  -0.53087
O          O       0.85302   0.92744   0.76351  -0.59390
O          O      -0.00098   0.87254   0.90740  -0.83227
F          F       0.84795   0.39220   0.46847  -0.08926
F          F       0.80621   0.62404   0.36116  -0.07775
F          F       0.24221   0.68471   0.17146  -0.09232
F          F       0.28509   0.45362   0.27808  -0.08730
F          F       0.60783   0.15206   0.03152  -0.08944
F          F       0.37595   0.19381   0.13883  -0.07773
F          F       0.31530   0.75779   0.32853  -0.09211
F          F       0.54639   0.71487   0.22192  -0.08737
F          F       0.15204   0.60780   0.53152  -0.08943
F          F       0.19378   0.37595   0.63884  -0.07797
F          F       0.75778   0.31529   0.82854  -0.09209
F          F       0.71490   0.54638   0.72192  -0.08707
F          F       0.39216   0.84794   0.96848  -0.08931
F          F       0.62404   0.80618   0.86116  -0.07779
F          F       0.68470   0.24221   0.67147  -0.09221
F          F       0.45360   0.28513   0.77807  -0.08732

