data_crystal

_audit_creation_method 'AiiDA-DDEC plugin'

_cell_length_a         5.30794
_cell_length_b        11.44574
_cell_length_c        11.44461

_cell_angle_alpha     69.56557
_cell_angle_beta     76.55575
_cell_angle_gamma     76.54974

_symmetry_space_group_name_Hall 'P 1'
_symmetry_space_group_name_H-M  'P 1'

loop_
_symmetry_equiv_pos_as_xyz
 'x,y,z'

loop_
_atom_site_label
_atom_site_type_symbol
_atom_site_fract_x
_atom_site_fract_y
_atom_site_fract_z
_atom_site_charge
Cu         Cu      0.42514   0.90002   0.60116   0.25253
Cu         Cu      0.92527   0.10119   0.40005   0.25250
H          H       0.83763   0.84984   0.40218   0.26871
H          H       0.27626   0.64777   0.74231   0.14225
H          H       0.37308   0.49108   0.73077   0.13086
H          H       0.12736   0.60162   0.64652   0.14060
H          H       0.10314   0.72778   0.23005   0.12736
H          H       0.10121   0.56113   0.28381   0.15119
H          H       0.27160   0.62761   0.35579   0.13068
H          H       0.08784   0.15096   0.59950   0.26992
H          H       0.67175   0.35590   0.25695   0.14044
H          H       0.59091   0.51129   0.27198   0.12993
H          H       0.37692   0.39769   0.35334   0.14137
H          H       0.05946   0.27319   0.77150   0.12704
H          H       0.94332   0.43961   0.71815   0.15010
H          H       0.25265   0.37374   0.64583   0.13061
H          H       0.33767   0.90236   0.34982   0.26849
H          H       0.77629   0.24243   0.14769   0.14230
H          H       0.87249   0.23063   0.99106   0.13063
H          H       0.62680   0.14660   0.10191   0.14095
H          H       0.60329   0.73027   0.22757   0.12705
H          H       0.60118   0.78423   0.06089   0.15055
H          H       0.77140   0.85616   0.12752   0.13011
H          H       0.58765   0.09947   0.65095   0.27010
H          H       0.17253   0.75673   0.85613   0.14061
H          H       0.09058   0.77209   0.01140   0.12985
H          H       0.87732   0.85320   0.89739   0.14153
H          H       0.55930   0.27150   0.77315   0.12705
H          H       0.44326   0.21811   0.93960   0.15005
H          H       0.75252   0.14575   0.87365   0.13074
C          C       0.70412   0.56902   0.49301  -0.14238
C          C       0.85446   0.65866   0.40663   0.19472
C          C       0.52173   0.63604   0.57095   0.19223
C          C       0.31422   0.59069   0.67875  -0.43125
C          C       0.09312   0.64332   0.31339  -0.43508
C          C       0.76485   0.43214   0.50841  -0.14220
C          C       0.91836   0.34238   0.59478   0.19362
C          C       0.72765   0.36527   0.43040   0.19123
C          C       0.58399   0.41098   0.32205  -0.42888
C          C       0.04772   0.35766   0.68823  -0.43290
C          C       0.20381   0.99311   0.06902  -0.14270
C          C       0.35426   0.90677   0.15863   0.19491
C          C       0.02143   0.07098   0.13607   0.19185
C          C       0.81381   0.17879   0.09074  -0.43153
C          C       0.59308   0.81367   0.14318  -0.43319
C          C       0.26460   0.00847   0.93212  -0.14191
C          C       0.41815   0.09481   0.84236   0.19410
C          C       0.22765   0.93035   0.86529   0.19075
C          C       0.08421   0.82198   0.91100  -0.42895
C          C       0.54756   0.18821   0.85761  -0.43295
Br         Br      0.43634   0.10127   0.40017  -0.55336
Br         Br      0.93629   0.90018   0.60123  -0.55351
N          N       0.55921   0.75710   0.53342  -0.16580
N          N       0.75534   0.76967   0.43159  -0.15374
N          N       0.84871   0.24414   0.46788  -0.16438
N          N       0.95513   0.23144   0.56980  -0.15559
N          N       0.05898   0.03347   0.25712  -0.16535
N          N       0.25520   0.93170   0.26965  -0.15363
N          N       0.34879   0.96778   0.74417  -0.16415
N          N       0.45512   0.06976   0.73139  -0.15606

