data_crystal

_audit_creation_method 'AiiDA-DDEC plugin'

_cell_length_a         9.94906
_cell_length_b         9.91596
_cell_length_c        19.59592

_cell_angle_alpha     90.05990
_cell_angle_beta     89.90074
_cell_angle_gamma     105.90438

_symmetry_space_group_name_Hall 'P 1'
_symmetry_space_group_name_H-M  'P 1'

loop_
_symmetry_equiv_pos_as_xyz
 'x,y,z'

loop_
_atom_site_label
_atom_site_type_symbol
_atom_site_fract_x
_atom_site_fract_y
_atom_site_fract_z
_atom_site_charge
Ni         Ni      0.42928   0.31642   0.26873   0.99190
Ni         Ni      0.56348   0.67681   0.76904   0.99516
Ni         Ni      0.67676   0.56327   0.23111   1.00003
Ni         Ni      0.31687   0.42958   0.73143   0.99657
H          H       0.73060   0.66701   0.39322   0.12949
H          H       0.99227   0.36095   0.25077   0.14721
H          H       0.26259   0.32741   0.89435   0.13423
H          H       0.00165   0.63047   0.74956   0.14762
H          H       0.33030   0.26318   0.10758   0.13399
H          H       0.63112   0.00145   0.25044   0.14742
H          H       0.66623   0.72973   0.60753   0.12974
H          H       0.36034   0.99227   0.74925   0.14722
H          H       0.38590   0.38572   0.49989   0.15340
H          H       0.61044   0.60786  -0.00046   0.14734
H          H       0.04628   0.94353   0.25052   0.14543
H          H       0.94404   0.04676   0.74946   0.14535
C          C       0.67034   0.63503   0.43981  -0.07130
C          C       0.50801   0.43593   0.37664   0.57572
C          C       0.55367   0.51751   0.43990  -0.02390
C          C       0.18720   0.22091   0.25363   0.53896
C          C       0.94727   0.24787   0.25075  -0.06945
C          C       0.03467   0.15842   0.25110  -0.02651
C          C       0.32364   0.35962   0.94045  -0.09222
C          C       0.48492   0.56045   0.87770   0.57890
C          C       0.44041   0.47759   0.94061  -0.02042
C          C       0.80521   0.76936   0.75223   0.53732
C          C       0.04561   0.74369   0.74940  -0.07143
C          C       0.95748   0.83247   0.74958  -0.03181
C          C       0.36195   0.32302   0.06100  -0.09173
C          C       0.56298   0.48510   0.12242   0.57812
C          C       0.48021   0.43946   0.05980  -0.02223
C          C       0.76963   0.80448   0.24768   0.53549
C          C       0.74400   0.04534   0.25055  -0.06969
C          C       0.83251   0.95692   0.25040  -0.03633
C          C       0.63460   0.66961   0.56087  -0.07086
C          C       0.43541   0.50741   0.62348   0.57418
C          C       0.51728   0.55296   0.56040  -0.02446
C          C       0.22160   0.18776   0.74648   0.54059
C          C       0.24762   0.94739   0.74925  -0.06854
C          C       0.15852   0.03512   0.74900  -0.03180
C          C       0.83274   0.83385   0.50119   0.49204
C          C       0.71018   0.71017   0.50047  -0.05071
C          C       0.47691   0.47665   0.50006  -0.07210
C          C       0.15206   0.15132   0.00149   0.53764
C          C       0.28587   0.28436   0.00094   0.01192
C          C       0.51934   0.51713  -0.00004  -0.07925
C          C       0.97804   0.01267   0.25073  -0.06345
C          C       0.70760   0.28549   0.25065   0.58917
C          C       0.80195   0.19097   0.25063  -0.02905
C          C       0.01313   0.97847   0.74933  -0.06265
C          C       0.28568   0.70773   0.74936   0.58819
C          C       0.19078   0.80166   0.74931  -0.02896
O          O       0.90059   0.88696   0.44804  -0.27293
O          O       0.42658   0.31329   0.37762  -0.46322
O          O       0.27439   0.14846   0.24222  -0.46644
O          O       0.23968   0.35090   0.26898  -0.47396
O          O       0.57897   0.22714   0.26258  -0.51343
O          O       0.54736   0.49306   0.31741  -0.58211
O          O       0.10723   0.11961   0.94250  -0.34738
O          O       0.56701   0.68267   0.87887  -0.46364
O          O       0.71755   0.84109   0.74036  -0.46977
O          O       0.75270   0.63988   0.76821  -0.46782
O          O       0.41438   0.76655   0.76121  -0.51165
O          O       0.44428   0.50505   0.81822  -0.58057
O          O       0.12034   0.10749   0.06069  -0.34648
O          O       0.68538   0.56629   0.12119  -0.46110
O          O       0.84012   0.71553   0.25966  -0.45933
O          O       0.64050   0.75160   0.23151  -0.45751
O          O       0.76633   0.41496   0.23872  -0.50855
O          O       0.50654   0.44601   0.18202  -0.57403
O          O       0.88276   0.90026   0.55526  -0.27308
O          O       0.31297   0.42641   0.62242  -0.46177
O          O       0.15097   0.27663   0.75804  -0.45726
O          O       0.35127   0.24033   0.73094  -0.46510
O          O       0.22742   0.57838   0.73734  -0.50861
O          O       0.49207   0.54680   0.68285  -0.57573

