data_crystal

_audit_creation_method 'AiiDA-DDEC plugin'

_cell_length_a         8.22306
_cell_length_b        12.15190
_cell_length_c        13.56632

_cell_angle_alpha     65.32745
_cell_angle_beta     91.54317
_cell_angle_gamma     82.05542

_symmetry_space_group_name_Hall 'P 1'
_symmetry_space_group_name_H-M  'P 1'

loop_
_symmetry_equiv_pos_as_xyz
 'x,y,z'

loop_
_atom_site_label
_atom_site_type_symbol
_atom_site_fract_x
_atom_site_fract_y
_atom_site_fract_z
_atom_site_charge
La         La      0.04210   0.63425   0.70317   1.97192
La         La      0.52636   0.64570   0.74250   1.95599
La         La      0.95789   0.36575   0.29684   1.97201
La         La      0.47364   0.35429   0.25751   1.95606
H          H       0.27294   0.28839   0.85822   0.14393
H          H       0.39538   0.23854   0.98299   0.13795
H          H       0.04262   0.39164   0.92522   0.11461
H          H       0.09262   0.23544   0.01062   0.13987
H          H       0.70657   0.05403   0.63858   0.13639
H          H       0.90100   0.96804   0.63892   0.12833
H          H       0.61084   0.04897   0.46066   0.12712
H          H       0.80113   0.96094   0.46455   0.15389
H          H       0.72709   0.71160   0.14180   0.14410
H          H       0.60460   0.76147   0.01704   0.13795
H          H       0.95737   0.60836   0.07480   0.11462
H          H       0.90737   0.76455   0.98938   0.13987
H          H       0.29347   0.94596   0.36141   0.13632
H          H       0.09902   0.03195   0.36105   0.12855
H          H       0.38915   0.95105   0.53933   0.12694
H          H       0.19883   0.03908   0.53542   0.15386
C          C       0.37495   0.42754   0.87869   0.65867
C          C       0.29976   0.31185   0.92662  -0.28700
C          C       0.14246   0.32190   0.98178  -0.27725
C          C       0.16434   0.35235   0.07852   0.69320
C          C       0.85846   0.45394   0.67585   0.65674
C          C       0.76614   0.40342   0.61806  -0.10507
C          C       0.69181   0.37932   0.55261  -0.07732
C          C       0.62190   0.36395   0.46118   0.63443
C          C       0.69712   0.86869   0.66478   0.65525
C          C       0.76853   0.98557   0.61318  -0.27841
C          C       0.74204   0.03167   0.48899  -0.28140
C          C       0.81147   0.14656   0.42601   0.64164
C          C       0.62505   0.57247   0.12132   0.65843
C          C       0.70024   0.68816   0.07340  -0.28699
C          C       0.85753   0.67809   0.01823  -0.27728
C          C       0.83566   0.64765   0.92148   0.69329
C          C       0.14152   0.54606   0.32416   0.65652
C          C       0.23387   0.59659   0.38191  -0.10527
C          C       0.30824   0.62072   0.44738  -0.07723
C          C       0.37809   0.63604   0.53883   0.63430
C          C       0.30286   0.13132   0.33519   0.65550
C          C       0.23148   0.01443   0.38679  -0.27881
C          C       0.25796   0.96834   0.51099  -0.28095
C          C       0.18853   0.85344   0.57398   0.64149
O          O       0.27858   0.53389   0.84086  -0.69980
O          O       0.52790   0.42211   0.87007  -0.57883
O          O       0.77863   0.52343   0.71494  -0.67726
O          O       0.01480   0.43824   0.68003  -0.56904
O          O       0.76984   0.77153   0.65570  -0.72504
O          O       0.56428   0.86643   0.70958  -0.57595
O          O       0.30287   0.37682   0.09988  -0.62938
O          O       0.04016   0.35140   0.13338  -0.66160
O          O       0.75482   0.21271   0.32443  -0.70596
O          O       0.92477   0.17832   0.46868  -0.58116
O          O       0.51121   0.29915   0.46939  -0.55455
O          O       0.68179   0.42269   0.37007  -0.68492
O          O       0.72142   0.46611   0.15916  -0.69997
O          O       0.47210   0.57790   0.12994  -0.57851
O          O       0.22137   0.47658   0.28506  -0.67744
O          O       0.98517   0.56175   0.31998  -0.56872
O          O       0.23014   0.22846   0.34429  -0.72502
O          O       0.43570   0.13357   0.29039  -0.57625
O          O       0.69712   0.62319   0.90011  -0.62938
O          O       0.95985   0.64860   0.86663  -0.66164
O          O       0.24518   0.78729   0.67555  -0.70585
O          O       0.07523   0.82168   0.53130  -0.58123
O          O       0.48878   0.70085   0.53060  -0.55454
O          O       0.31821   0.57731   0.62995  -0.68472

