data_crystal

_audit_creation_method 'AiiDA-DDEC plugin'

_cell_length_a         9.50431
_cell_length_b        14.51805
_cell_length_c        12.52031

_cell_angle_alpha     89.62170
_cell_angle_beta     89.59631
_cell_angle_gamma     90.86749

_symmetry_space_group_name_Hall 'P 1'
_symmetry_space_group_name_H-M  'P 1'

loop_
_symmetry_equiv_pos_as_xyz
 'x,y,z'

loop_
_atom_site_label
_atom_site_type_symbol
_atom_site_fract_x
_atom_site_fract_y
_atom_site_fract_z
_atom_site_charge
Zn         Zn      0.75370   0.25158   0.21967   0.89358
Zn         Zn      0.74764   0.24833   0.73722   0.89303
Zn         Zn      0.24605   0.74833   0.77662   0.89481
Zn         Zn      0.24674   0.75584   0.26219   0.89242
H          H       0.42316   0.45861   0.20236   0.14154
H          H       0.38291   0.38340   0.09685   0.14268
H          H       0.59607   0.54828   0.08126   0.11083
H          H       0.01175   0.49781   0.70967   0.14574
H          H       0.10813   0.41769   0.63573   0.14534
H          H       0.85565   0.52587   0.54197   0.10929
H          H       0.08119   0.04249   0.19782   0.14087
H          H       0.11767   0.11706   0.08942   0.14197
H          H       0.90590   0.95138   0.08308   0.11033
H          H       0.48243  -0.00043   0.71422   0.14687
H          H       0.38787   0.08108   0.64042   0.14530
H          H       0.63998   0.97259   0.54545   0.10842
H          H       0.57562   0.54224   0.79952   0.14155
H          H       0.61451   0.61728   0.90548   0.14316
H          H       0.40205   0.45195   0.92013   0.11087
H          H       0.99158   0.50208   0.28526   0.14658
H          H       0.89313   0.58088   0.35964   0.14488
H          H       0.14559   0.47294   0.45347   0.10886
H          H       0.91855   0.95748   0.80051   0.14051
H          H       0.88280   0.88271   0.90877   0.14224
H          H       0.09391   0.04879   0.91529   0.11060
H          H       0.51278   0.00337   0.29002   0.14724
H          H       0.60615   0.92097   0.36351   0.14388
H          H       0.35257   0.02880   0.45732   0.11005
C          C       0.58101   0.36198   0.16887   0.62374
C          C       0.46793   0.42635   0.13029  -0.28840
C          C       0.51994   0.49789   0.05164  -0.09154
C          C       0.77763   0.40074   0.92970   0.73210
C          C       0.90008   0.37404   0.67966   0.59844
C          C       0.00362   0.44843   0.64308  -0.29422
C          C       0.96025   0.49614   0.54181  -0.09517
C          C       0.92755   0.29234   0.43832   0.73540
C          C       0.92172   0.13833   0.16630   0.62391
C          C       0.03406   0.07398   0.12620  -0.28859
C          C       0.98052   0.00206   0.05052  -0.08968
C          C       0.71951   0.10173   0.93278   0.73272
C          C       0.59557   0.12332   0.68266   0.60180
C          C       0.49178   0.04948   0.64739  -0.29214
C          C       0.53573   0.00286   0.54583  -0.09422
C          C       0.57281   0.20436   0.44013   0.73393
C          C       0.41697   0.63817   0.83201   0.62361
C          C       0.53007   0.57415   0.87150  -0.29046
C          C       0.47822   0.50229   0.94979  -0.09201
C          C       0.22800   0.59996   0.07256   0.73055
C          C       0.10074   0.62621   0.31769   0.60110
C          C      -0.00192   0.55073   0.35268  -0.29442
C          C       0.04095   0.50258   0.45375  -0.09323
C          C       0.07221   0.70061   0.56181   0.73535
C          C       0.07901   0.86206   0.83159   0.62203
C          C       0.96611   0.92601   0.87193  -0.28760
C          C       0.01933  -0.00201   0.94769  -0.09336
C          C       0.28422   0.90291   0.06724   0.73515
C          C       0.39916   0.87976   0.31823   0.59676
C          C       0.50250   0.95271   0.35606  -0.29257
C          C       0.45691  -0.00132   0.45761  -0.09519
C          C       0.43441   0.78782   0.55638   0.73536
O          O       0.54758   0.29209   0.22765  -0.55678
O          O       0.86004   0.45849   0.95084  -0.32681
O          O       0.69524   0.34312   0.90488  -0.38347
O          O       0.93695   0.31478   0.75086  -0.54332
O          O       0.77631   0.36953   0.64062  -0.55357
O          O       0.84116   0.32899   0.38655  -0.37519
O          O       0.01239   0.25542   0.49015  -0.32182
O          O       0.71014   0.37534   0.14242  -0.54625
O          O       0.95811   0.20844   0.22261  -0.55934
O          O       0.63421   0.04630   0.95710  -0.32580
O          O       0.80473   0.15710   0.90484  -0.38328
O          O       0.56059   0.18052   0.75616  -0.54491
O          O       0.71797   0.12991   0.64013  -0.55423
O          O       0.66006   0.16921   0.38749  -0.37625
O          O       0.48654   0.24005   0.49212  -0.32583
O          O       0.79201   0.12525   0.14346  -0.54585
O          O       0.45165   0.70774   0.77274  -0.55957
O          O       0.14614   0.54135   0.05353  -0.32931
O          O       0.30976   0.65855   0.09539  -0.38245
O          O       0.06164   0.68644   0.24825  -0.54415
O          O       0.22492   0.63109   0.35556  -0.55719
O          O       0.15944   0.66586   0.61454  -0.37687
O          O       0.98659   0.73575   0.50920  -0.32079
O          O       0.28753   0.62486   0.85728  -0.54466
O          O       0.04349   0.79310   0.77277  -0.55930
O          O       0.36786   0.95926   0.04265  -0.32352
O          O       0.20078   0.84665   0.09560  -0.38237
O          O       0.44084   0.81711   0.25356  -0.54256
O          O       0.27076   0.87937   0.34971  -0.55143
O          O       0.33974   0.82063   0.60337  -0.37781
O          O       0.52737   0.75535   0.50840  -0.32132
O          O       0.20813   0.87434   0.85637  -0.54658

