data_crystal

_audit_creation_method 'AiiDA-DDEC plugin'

_cell_length_a         9.66144
_cell_length_b        10.44504
_cell_length_c        11.80479

_cell_angle_alpha     108.31138
_cell_angle_beta     92.57185
_cell_angle_gamma     118.30500

_symmetry_space_group_name_Hall 'P 1'
_symmetry_space_group_name_H-M  'P 1'

loop_
_symmetry_equiv_pos_as_xyz
 'x,y,z'

loop_
_atom_site_label
_atom_site_type_symbol
_atom_site_fract_x
_atom_site_fract_y
_atom_site_fract_z
_atom_site_charge
Mg         Mg      0.55573   0.10224   0.33857   1.54955
Mg         Mg      0.44427   0.89775   0.66143   1.54954
Mg         Mg      0.50000   0.00000   0.00000   1.56789
H          H       0.69966   0.80716   0.98741   0.13317
H          H       0.94308   0.75464   0.95014   0.14840
H          H       0.53047   0.72431   0.14393   0.14439
H          H       0.60861   0.50329   0.05817   0.13858
H          H       0.30034   0.19284   0.01259   0.13327
H          H       0.05692   0.24536   0.04986   0.14833
H          H       0.46953   0.27569   0.85607   0.14449
H          H       0.39139   0.49670   0.94182   0.13852
C          C       0.47691   0.79036   0.39053   0.64002
C          C       0.58802   0.32351   0.20784   0.60741
C          C       0.74735   0.03888   0.22246   0.57751
C          C       0.85355   0.98433   0.16710  -0.06280
C          C       0.07667   0.93712   0.13171  -0.05694
C          C       0.23923   0.95622   0.14403   0.60989
C          C       0.81604   0.86678   0.05126  -0.09203
C          C       0.94262   0.83847   0.03242  -0.12077
C          C       0.57902   0.46682   0.22922  -0.06782
C          C       0.51659   0.67599   0.31143  -0.08032
C          C       0.54326   0.65626   0.19254  -0.09472
C          C       0.58142   0.53863   0.14701  -0.12787
C          C       0.52309   0.20964   0.60946   0.63997
C          C       0.41198   0.67649   0.79216   0.60759
C          C       0.25265   0.96112   0.77754   0.57730
C          C       0.14645   0.01567   0.83290  -0.06270
C          C       0.92333   0.06288   0.86829  -0.05702
C          C       0.76077   0.04378   0.85597   0.60994
C          C       0.18397   0.13322   0.94874  -0.09218
C          C       0.05738   0.16152   0.96758  -0.12077
C          C       0.42099   0.53318   0.77078  -0.06799
C          C       0.48341   0.32401   0.68857  -0.08023
C          C       0.45674   0.34374   0.80746  -0.09466
C          C       0.41859   0.46137   0.85299  -0.12792
S          S       0.04417   0.05978   0.25106   0.23970
S          S       0.53692   0.54975   0.36528   0.23223
S          S       0.95584   0.94021   0.74894   0.23973
S          S       0.46308   0.45025   0.63472   0.23218
O          O       0.47323   0.88716   0.34948  -0.63050
O          O       0.78771   0.11973   0.33646  -0.59064
O          O       0.44877   0.77810   0.49180  -0.65440
O          O       0.63128   0.30600   0.30228  -0.60748
O          O       0.32689   0.03224   0.25303  -0.63941
O          O       0.27786   0.90263   0.04675  -0.62672
O          O       0.61260   0.99568   0.15502  -0.72875
O          O       0.54442   0.22813   0.09690  -0.62357
O          O       0.52677   0.11283   0.65052  -0.63030
O          O       0.21230   0.88027   0.66354  -0.59062
O          O       0.55123   0.22189   0.50820  -0.65446
O          O       0.36872   0.69400   0.69772  -0.60757
O          O       0.67312   0.96776   0.74697  -0.63945
O          O       0.72214   0.09736   0.95325  -0.62682
O          O       0.38740   0.00432   0.84498  -0.72849
O          O       0.45558   0.77187   0.90310  -0.62369

