data_crystal

_audit_creation_method 'AiiDA-DDEC plugin'

_cell_length_a        10.06828
_cell_length_b        11.12006
_cell_length_c         9.88652

_cell_angle_alpha     83.99147
_cell_angle_beta     74.62651
_cell_angle_gamma     72.57306

_symmetry_space_group_name_Hall 'P 1'
_symmetry_space_group_name_H-M  'P 1'

loop_
_symmetry_equiv_pos_as_xyz
 'x,y,z'

loop_
_atom_site_label
_atom_site_type_symbol
_atom_site_fract_x
_atom_site_fract_y
_atom_site_fract_z
_atom_site_charge
Tb         Tb      0.17883   0.17154   0.04914   2.02753
Tb         Tb      0.82621   0.83204   0.95097   2.02896
Zn         Zn      0.25717   0.36038   0.61443   0.80787
Zn         Zn      0.74422   0.63953   0.38330   0.80704
H          H       0.48533   0.27092   0.35088   0.12665
H          H       0.71288   0.08960   0.28297   0.14547
H          H       0.80568   0.95263   0.47300   0.11724
H          H       0.77855   0.27505   0.44257   0.11150
H          H       0.81940   0.18412   0.67826   0.13116
H          H       0.02874   0.21179   0.74971   0.09347
H          H       0.51597   0.72720   0.64641   0.12659
H          H       0.28800   0.90799   0.71521   0.14522
H          H       0.19704   0.04767   0.52518   0.11704
H          H       0.22140   0.72492   0.55762   0.11149
H          H       0.18138   0.81663   0.32173   0.12949
H          H       0.97303   0.78832   0.24864   0.09168
C          C       0.69397   0.97111   0.75237   0.58905
C          C       0.62938   0.04885   0.63900  -0.03467
C          C       0.50015   0.14604   0.66556   0.07952
C          C       0.52950   0.20477   0.42794   0.10132
C          C       0.65483   0.10562   0.39221  -0.10249
C          C       0.70587   0.02830   0.49854  -0.05213
C          C       0.39665   0.16533   0.80648   0.53360
C          C       0.17978   0.43226   0.35842   0.52352
C          C       0.07673   0.35857   0.44045   0.06820
C          C       0.96304   0.34663   0.39167  -0.10782
C          C       0.93393   0.40135   0.25288   0.66380
C          C       0.86891   0.28334   0.47779  -0.03505
C          C       0.89048   0.23322   0.60793  -0.10558
C          C       0.00607   0.24833   0.64941   0.11385
C          C       0.95010   0.01937   0.07348   0.49746
C          C       0.31038   0.03165   0.24650   0.59011
C          C       0.37426   0.95298   0.35960  -0.03807
C          C       0.50319   0.85556   0.33251   0.08145
C          C       0.47235   0.79439   0.56974   0.10146
C          C       0.34686   0.89333   0.60597  -0.09827
C          C       0.29689   0.97206   0.49995  -0.05180
C          C       0.60704   0.83762   0.19158   0.53144
C          C       0.82036   0.56799   0.63967   0.51859
C          C       0.92399   0.64115   0.55767   0.06652
C          C       0.03734   0.65304   0.60697  -0.10583
C          C       0.06582   0.59857   0.74594   0.66228
C          C       0.13142   0.71673   0.52162  -0.03739
C          C       0.11025   0.76718   0.39141  -0.10246
C          C       0.99514   0.75184   0.34918   0.11267
C          C       0.05614   0.98282   0.93010   0.50040
N          N       0.45431   0.22334   0.56215  -0.23324
N          N       0.09626   0.30899   0.56696  -0.26111
N          N       0.54821   0.77714   0.43549  -0.23305
N          N       0.90492   0.69092   0.43109  -0.25889
O          O       0.42531   0.09693   0.91071  -0.54255
O          O       0.27374   0.24945   0.81522  -0.61620
O          O       0.69971   0.85455   0.76990  -0.62102
O          O       0.75211   0.02366   0.82031  -0.61149
O          O       0.27946   0.43659   0.41668  -0.56576
O          O       0.15857   0.48383   0.24547  -0.49700
O          O       0.00733   0.34022   0.14244  -0.66804
O          O       0.82694   0.49697   0.25184  -0.49103
O          O       0.96713   0.10221   0.14020  -0.58163
O          O       0.85320   0.96241   0.11253  -0.60709
O          O       0.58028   0.90936   0.08901  -0.53904
O          O       0.72835   0.75083   0.18098  -0.61590
O          O       0.29996   0.14938   0.23345  -0.62375
O          O       0.25701   0.97851   0.17435  -0.60923
O          O       0.72112   0.56357   0.58072  -0.56460
O          O       0.84068   0.51709   0.75309  -0.49017
O          O       0.99272   0.66100   0.85553  -0.66902
O          O       0.17224   0.50262   0.74760  -0.49097
O          O       0.04025   0.89765   0.86586  -0.58586
O          O       0.15037   0.04238   0.88788  -0.60547

