data_crystal

_audit_creation_method 'AiiDA-DDEC plugin'

_cell_length_a         7.81104
_cell_length_b         9.87084
_cell_length_c        16.05852

_cell_angle_alpha     94.11908
_cell_angle_beta     94.87711
_cell_angle_gamma     92.59581

_symmetry_space_group_name_Hall 'P 1'
_symmetry_space_group_name_H-M  'P 1'

loop_
_symmetry_equiv_pos_as_xyz
 'x,y,z'

loop_
_atom_site_label
_atom_site_type_symbol
_atom_site_fract_x
_atom_site_fract_y
_atom_site_fract_z
_atom_site_charge
Mn         Mn      0.38911   0.56300   0.14781   1.21691
Mn         Mn      0.26271   0.06336   0.28201   1.13988
Mn         Mn      0.55746   0.25208   0.43220   1.18618
Mn         Mn      0.61173   0.43708   0.85223   1.22152
Mn         Mn      0.73742   0.93645   0.71815   1.13685
Mn         Mn      0.44292   0.74719   0.56792   1.18702
P          P       0.74124   0.41049   0.06492   1.53469
P          P       0.86293   0.15550   0.30702   1.45629
P          P       0.26103   0.59165   0.93520   1.54176
P          P       0.13745   0.84348   0.69329   1.45515
H          H       0.02099   0.44439   0.09140   0.40075
H          H       0.81486   0.27396   0.16346   0.38637
H          H       0.67725   0.00088   0.23883   0.39883
H          H       0.98229   0.55389   0.90845   0.40312
H          H       0.18464   0.72737   0.83689   0.38718
H          H       0.32345  -0.00187   0.76081   0.39855
C          C       0.42615   0.83318   0.21172   0.46516
C          C       0.24297   0.78585   0.22744   0.46836
C          C       0.26254   0.29476   0.17773   0.48185
C          C       0.38837   0.33889   0.25494   0.47960
C          C       0.41021   0.47478   0.50934   0.45730
C          C       0.56056   0.02572   0.53898   0.49478
C          C       0.57387   0.16713   0.78837   0.46673
C          C       0.75708   0.21433   0.77262   0.46805
C          C       0.73748   0.70489   0.82222   0.48183
C          C       0.61156   0.66074   0.74502   0.47968
C          C       0.59034   0.52461   0.49048   0.45895
C          C       0.43929   0.97378   0.46112   0.49354
O          O       0.60099   0.49346   0.10087  -0.68014
O          O       0.70046   0.37972   0.97063  -0.66705
O          O       0.91654   0.49806   0.08737  -0.62855
O          O       0.75798   0.26898   0.10380  -0.63686
O          O       0.74937   0.16655   0.37916  -0.72180
O          O       0.05366   0.14004   0.33710  -0.56665
O          O       0.87453   0.28868   0.26062  -0.48703
O          O       0.80223   0.03233   0.24188  -0.64045
O          O       0.51869   0.74618   0.17923  -0.40592
O          O       0.47152   0.95749   0.23362  -0.48047
O          O       0.20067   0.66162   0.20803  -0.43664
O          O       0.14939   0.87443   0.25869  -0.43306
O          O       0.23365   0.38711   0.12662  -0.48979
O          O       0.19745   0.17554   0.17124  -0.46032
O          O       0.45950   0.45509   0.26247  -0.45351
O          O       0.40865   0.24704   0.30781  -0.53014
O          O       0.36616   0.35154   0.48721  -0.44193
O          O       0.31933   0.56088   0.54527  -0.42993
O          O       0.61740   0.14676   0.54591  -0.45843
O          O       0.59252   0.93547   0.59132  -0.51748
O          O       0.40340   0.51193   0.89888  -0.68521
O          O       0.30009   0.62084   0.02963  -0.66868
O          O       0.08775   0.50168   0.91229  -0.63205
O          O       0.24162   0.73307   0.89663  -0.63777
O          O       0.25101   0.83334   0.62107  -0.72292
O          O       0.94689   0.85954   0.66303  -0.56432
O          O       0.12511   0.71090   0.74033  -0.49033
O          O       0.19846   0.96695   0.75821  -0.64007
O          O       0.48151   0.25432   0.82090  -0.40809
O          O       0.52838   0.04290   0.76649  -0.48008
O          O       0.79932   0.33867   0.79201  -0.43750
O          O       0.85063   0.12585   0.74137  -0.43220
O          O       0.76690   0.61243   0.87315  -0.48899
O          O       0.80225   0.82421   0.82887  -0.45970
O          O       0.54066   0.54447   0.73744  -0.45345
O          O       0.59122   0.75264   0.69219  -0.53060
O          O       0.63400   0.64792   0.51270  -0.44290
O          O       0.68142   0.43873   0.45458  -0.43009
O          O       0.38247   0.85276   0.45417  -0.45830
O          O       0.40748   0.06396   0.40873  -0.51750

