data_crystal

_audit_creation_method 'AiiDA-DDEC plugin'

_cell_length_a        10.18044
_cell_length_b        10.07978
_cell_length_c        11.14036

_cell_angle_alpha     103.22442
_cell_angle_beta     116.04879
_cell_angle_gamma     92.35003

_symmetry_space_group_name_Hall 'P 1'
_symmetry_space_group_name_H-M  'P 1'

loop_
_symmetry_equiv_pos_as_xyz
 'x,y,z'

loop_
_atom_site_label
_atom_site_type_symbol
_atom_site_fract_x
_atom_site_fract_y
_atom_site_fract_z
_atom_site_charge
Lu         Lu      0.47849   0.24003   0.03023   1.65837
Lu         Lu      0.52151   0.75997   0.96977   1.65841
H          H       0.28033   0.02292   0.76060   0.43237
H          H       0.44378   0.99071   0.82221   0.38673
H          H       0.21723   0.17800   0.16701   0.13186
H          H       0.25983   0.60378   0.16351   0.13516
H          H       0.91078   0.57587   0.28529   0.12336
H          H       0.94292   0.68350   0.77795   0.31170
H          H       0.13291   0.73142   0.86453   0.29994
H          H       0.84281   0.17830   0.79627   0.29634
H          H       0.01851   0.19050   0.81674   0.30080
H          H       0.72349   0.25553   0.44127   0.30182
H          H       0.85836   0.27029   0.61250   0.27530
H          H       0.71967   0.97708   0.23940   0.43244
H          H       0.55622   0.00929   0.17779   0.38651
H          H       0.78277   0.82199   0.83299   0.13184
H          H       0.74018   0.39621   0.83650   0.13510
H          H       0.08922   0.42413   0.71471   0.12339
H          H       0.05709   0.31650   0.22205   0.31172
H          H       0.86709   0.26858   0.13547   0.29983
H          H       0.15720   0.82170   0.20373   0.29633
H          H       0.98150   0.80950   0.18326   0.30062
H          H       0.27651   0.74447   0.55874   0.30198
H          H       0.14164   0.72971   0.38750   0.27531
C          C       0.11613   0.43180   0.99544  -0.12511
C          C       0.72086   0.37657   0.26073   0.56950
C          C       0.29362   0.97159   0.03299   0.60521
C          C       0.12058   0.10057   0.09382  -0.21563
C          C       0.14188   0.98210   0.01362  -0.15404
C          C       0.96764   0.36796   0.90274   0.24896
C          C       0.86241   0.43797   0.38549  -0.14105
C          C       0.14493   0.56049   0.09077  -0.19975
C          C       0.01829   0.87654   0.91605   0.26968
C          C       0.95198   0.54377   0.38042  -0.20916
C          C       0.91039   0.39061   0.50757   0.26614
C          C       0.24581   0.36816  -0.00041   0.57235
C          C       0.88388   0.56820   0.00456  -0.12514
C          C       0.27915   0.62343   0.73928   0.56933
C          C       0.70638   0.02841   0.96701   0.60534
C          C       0.87942   0.89942   0.90618  -0.21560
C          C       0.85812   0.01790   0.98639  -0.15417
C          C       0.03237   0.63204   0.09726   0.24882
C          C       0.13760   0.56202   0.61452  -0.14102
C          C       0.85507   0.43951   0.90924  -0.19988
C          C       0.98171   0.12346   0.08396   0.26962
C          C       0.04802   0.45623   0.61958  -0.20903
C          C       0.08961   0.60939   0.49243   0.26632
C          C       0.75419   0.63184   0.00041   0.57254
N          N       0.03121   0.76077   0.83117  -0.61191
N          N       0.92955   0.23985   0.80407  -0.59280
N          N       0.83098   0.28194   0.51581  -0.62671
N          N       0.96879   0.23923   0.16883  -0.61180
N          N       0.07045   0.76015   0.19593  -0.59258
N          N       0.16902   0.71805   0.48420  -0.62697
O          O       0.37530   0.42009   0.09967  -0.57313
O          O       0.68245   0.41307   0.14773  -0.58411
O          O       0.39467   0.08131   0.10009  -0.61830
O          O       0.23154   0.25872   0.90435  -0.59360
O          O       0.32457   0.85597   0.98632  -0.57616
O          O       0.63271   0.27901   0.25998  -0.59070
O          O       0.38341   0.06648   0.81450  -0.77331
O          O       0.62470   0.57990   0.90034  -0.57330
O          O       0.31756   0.58693   0.85227  -0.58397
O          O       0.60534   0.91869   0.89991  -0.61837
O          O       0.76846   0.74128   0.09565  -0.59365
O          O       0.67544   0.14403   0.01368  -0.57627
O          O       0.36729   0.72099   0.74002  -0.59067
O          O       0.61660   0.93352   0.18550  -0.77314

