data_crystal

_audit_creation_method 'AiiDA-DDEC plugin'

_cell_length_a         9.45078
_cell_length_b        10.06892
_cell_length_c        15.72356

_cell_angle_alpha     100.63788
_cell_angle_beta     90.00000
_cell_angle_gamma     90.00000

_symmetry_space_group_name_Hall 'P 1'
_symmetry_space_group_name_H-M  'P 1'

loop_
_symmetry_equiv_pos_as_xyz
 'x,y,z'

loop_
_atom_site_label
_atom_site_type_symbol
_atom_site_fract_x
_atom_site_fract_y
_atom_site_fract_z
_atom_site_charge
Co         Co      0.41515   0.35789   0.91786   0.73422
Co         Co      0.08485   0.85789   0.91786   0.73431
Co         Co      0.91515   0.14211   0.08214   0.73431
Co         Co      0.58485   0.64211   0.08214   0.73417
H          H       0.86706   0.38174   0.59013   0.11031
H          H       0.13295   0.61827   0.40987   0.11032
H          H       0.75875   0.54759   0.92366   0.32147
H          H       0.31022   0.04966   0.86604   0.12289
H          H       0.73129   0.61650   0.35025   0.11729
H          H       0.60724   0.11782   0.86652   0.33757
H          H       0.23129   0.88351   0.64976   0.11740
H          H       0.81023   0.45034   0.13396   0.12295
H          H       0.39276   0.88218   0.13348   0.33764
H          H       0.76872   0.11650   0.35025   0.11724
H          H       0.46950   0.96174   0.34730   0.11022
H          H       0.89276   0.61783   0.86652   0.33764
H          H       0.53051   0.03826   0.65270   0.11024
H          H       0.03050   0.46174   0.34730   0.11030
H          H       0.63295   0.88174   0.59013   0.11029
H          H       0.25875   0.95241   0.07634   0.32149
H          H       0.74125   0.04759   0.92366   0.32154
H          H       0.68978   0.95035   0.13396   0.12295
H          H       0.26871   0.38350   0.64976   0.11737
H          H       0.74498   0.18214   0.51122   0.10398
H          H       0.25502   0.81787   0.48878   0.10411
H          H       0.24498   0.31786   0.48878   0.10403
H          H       0.24125   0.45241   0.07634   0.32153
H          H       0.18978   0.54966   0.86604   0.12286
H          H       0.10724   0.38218   0.13348   0.33759
H          H       0.75502   0.68214   0.51122   0.10404
H          H       0.96950   0.53826   0.65270   0.11016
H          H       0.36706   0.11827   0.40987   0.11030
C          C       0.96189   0.43967   0.47641   0.05324
C          C       0.41701   0.24466   0.75502   0.55866
C          C       0.81579   0.74076   0.97406   0.52836
C          C       0.91702   0.25534   0.24498   0.55867
C          C       0.37860   0.14282   0.47986  -0.11894
C          C       0.82096   0.20619   0.38571  -0.09089
C          C       0.18421   0.25925   0.02594   0.52840
C          C       0.47014   0.09722   0.61409  -0.15105
C          C       0.58299   0.75535   0.24498   0.55864
C          C       0.97014   0.40278   0.38591  -0.15096
C          C       0.52986   0.90278   0.38591  -0.15093
C          C       0.02986   0.59722   0.61409  -0.15098
C          C       0.87860   0.35718   0.52014  -0.11887
C          C       0.62141   0.85718   0.52014  -0.11886
C          C       0.19100   0.75706   0.52452  -0.08208
C          C       0.75393   0.39753   0.07783   0.17031
C          C       0.67904   0.70619   0.38571  -0.09093
C          C       0.31579   0.75925   0.02594   0.52846
C          C       0.32096   0.29381   0.61429  -0.09086
C          C       0.12140   0.64282   0.47986  -0.11903
C          C       0.17904   0.79381   0.61429  -0.09079
C          C       0.03811   0.56033   0.52359   0.05337
C          C       0.90164   0.28774   0.34079  -0.04129
C          C       0.59836   0.78774   0.34079  -0.04130
C          C       0.53811   0.93967   0.47641   0.05328
C          C       0.24607   0.60247   0.92218   0.17018
C          C       0.69100   0.74295   0.47548  -0.08201
C          C       0.25393   0.10247   0.92218   0.17011
C          C       0.46189   0.06033   0.52359   0.05336
C          C       0.68421   0.24076   0.97406   0.52842
C          C       0.08299   0.74466   0.75502   0.55870
C          C       0.80901   0.24295   0.47548  -0.08200
C          C       0.40164   0.21226   0.65921  -0.04116
C          C       0.74607   0.89754   0.07783   0.17009
C          C       0.30901   0.25706   0.52452  -0.08209
C          C       0.09836   0.71227   0.65921  -0.04128
N          N       0.89647   0.85104   0.97046  -0.36597
N          N       0.65053   0.45179   0.03868  -0.23704
N          N       0.72006   0.76668   0.04041  -0.43639
N          N       0.39647   0.64897   0.02954  -0.36612
N          N       0.27995   0.23333   0.95959  -0.43631
N          N       0.83168   0.62041   0.92081  -0.65601
N          N       0.22005   0.73333   0.95959  -0.43637
N          N       0.15053   0.04821   0.96132  -0.23698
N          N       0.60354   0.35104   0.97046  -0.36615
N          N       0.16832   0.37959   0.07919  -0.65584
N          N       0.10354   0.14896   0.02954  -0.36605
N          N       0.66832   0.12041   0.92081  -0.65596
N          N       0.77995   0.26668   0.04041  -0.43642
N          N       0.33168   0.87960   0.07919  -0.65583
N          N       0.34947   0.54822   0.96132  -0.23708
N          N       0.84947   0.95179   0.03868  -0.23683
O          O       0.97223   0.33964   0.20402  -0.56202
O          O       0.62763   0.63911   0.20435  -0.52724
O          O       0.02777   0.66036   0.79598  -0.56217
O          O       0.37237   0.36089   0.79566  -0.52722
O          O       0.87237   0.13911   0.20435  -0.52730
O          O       0.12763   0.86089   0.79566  -0.52721
O          O       0.52777   0.83965   0.20402  -0.56205
O          O       0.47223   0.16036   0.79598  -0.56212

