data_crystal

_audit_creation_method 'AiiDA-DDEC plugin'

_cell_length_a         8.29637
_cell_length_b         9.66700
_cell_length_c        10.54995

_cell_angle_alpha     94.73020
_cell_angle_beta     112.62370
_cell_angle_gamma     112.63567

_symmetry_space_group_name_Hall 'P 1'
_symmetry_space_group_name_H-M  'P 1'

loop_
_symmetry_equiv_pos_as_xyz
 'x,y,z'

loop_
_atom_site_label
_atom_site_type_symbol
_atom_site_fract_x
_atom_site_fract_y
_atom_site_fract_z
_atom_site_charge
Eu         Eu      0.28720   0.05252   0.01298   1.72186
Eu         Eu      0.71211   0.94749   0.98710   1.72190
H          H       0.84029   0.77866   0.65630   0.14421
H          H       0.72877   0.79406   0.39792   0.14201
H          H       0.74137   0.23155   0.53815   0.14350
H          H       0.87896   0.20671   0.79388   0.13500
H          H       0.48434   0.61676   0.13890   0.12848
H          H       0.27230   0.53764   0.16658   0.12107
H          H       0.26793   0.53896   0.87225   0.12680
H          H       0.05818   0.47361   0.90497   0.11396
H          H       0.16044   0.22117   0.34416   0.14433
H          H       0.27080   0.20556   0.60246   0.14213
H          H       0.25842   0.76823   0.46237   0.14270
H          H       0.12231   0.79336   0.20658   0.13456
H          H       0.51573   0.38308   0.86145   0.12873
H          H       0.72811   0.46199   0.83390   0.12169
H          H       0.73245   0.46109   0.12828   0.12729
H          H       0.94218   0.52598   0.09520   0.11392
C          C       0.82052   0.87575   0.62077   0.00169
C          C       0.75738   0.88665   0.48182  -0.13736
C          C       0.72915   0.01574   0.44934   0.00928
C          C       0.76658   0.13178   0.56029  -0.13453
C          C       0.83865   0.12141   0.69930  -0.01212
C          C       0.66160   0.02907   0.29808   0.61250
C          C       0.32856   0.37195   0.06942   0.62699
C          C       0.32966   0.52894   0.08976  -0.27820
C          C       0.21363   0.55654   0.94903  -0.27167
C          C       0.23787   0.72165   0.97401   0.65218
C          C       0.18001   0.12405   0.37968   0.00014
C          C       0.24309   0.11330   0.51868  -0.13634
C          C       0.27131   0.98424   0.55118   0.00944
C          C       0.23399   0.86828   0.44018  -0.13455
C          C       0.16210   0.87853   0.30110  -0.01214
C          C       0.33875   0.97065   0.70234   0.61291
C          C       0.67137   0.62784   0.93030   0.62733
C          C       0.67040   0.47095   0.91042  -0.27968
C          C       0.78653   0.44357   0.05132  -0.27129
C          C       0.76174   0.27835   0.02553   0.65191
N          N       0.86423   0.99418   0.72708   0.35535
N          N       0.13607   0.00560   0.27328   0.35625
O          O       0.93373   0.98527   0.86053  -0.58129
O          O       0.52096   0.06403   0.25141  -0.59720
O          O       0.75334   0.00380   0.23408  -0.60753
O          O       0.38573   0.31971   0.17597  -0.56312
O          O       0.27406   0.29203   0.94405  -0.55366
O          O       0.10900   0.75039   0.99014  -0.59520
O          O       0.39201   0.83144   0.98025  -0.70378
O          O       0.06602   0.01437   0.13979  -0.58236
O          O       0.47942   0.93576   0.74870  -0.59764
O          O       0.24662   0.99515   0.76637  -0.60802
O          O       0.61434   0.68013   0.82374  -0.56193
O          O       0.72562   0.70771   0.05562  -0.55184
O          O       0.88919   0.24940   0.00723  -0.59536
O          O       0.60837   0.16873   0.02044  -0.70334

