data_crystal

_audit_creation_method 'AiiDA-DDEC plugin'

_cell_length_a         8.37822
_cell_length_b         9.17651
_cell_length_c        16.28973

_cell_angle_alpha     90.04772
_cell_angle_beta     89.88649
_cell_angle_gamma     97.68746

_symmetry_space_group_name_Hall 'P 1'
_symmetry_space_group_name_H-M  'P 1'

loop_
_symmetry_equiv_pos_as_xyz
 'x,y,z'

loop_
_atom_site_label
_atom_site_type_symbol
_atom_site_fract_x
_atom_site_fract_y
_atom_site_fract_z
_atom_site_charge
Tb         Tb      0.96579   0.13181   0.33605   1.96242
Tb         Tb      0.53496   0.36947   0.83558   1.95977
Tb         Tb      0.03409   0.86851   0.66379   1.96246
Tb         Tb      0.46523   0.63203   0.16414   1.96087
H          H       0.96859   0.71552   0.38774   0.15510
H          H       0.62212   0.31349   0.25691   0.08282
H          H       0.53013   0.78764   0.88751   0.15604
H          H       0.87733   0.18925   0.75613   0.08154
H          H       0.03151   0.28448   0.61204   0.15565
H          H       0.37718   0.68673   0.74308   0.08287
H          H       0.46965   0.21331   0.11185   0.15649
H          H       0.12235   0.81185   0.24348   0.08202
C          C       0.91861   0.48206   0.36829   0.18600
C          C       0.71843   0.80240   0.28873   0.62989
C          C       0.88952   0.62734   0.35818  -0.15626
C          C       0.76165   0.65170   0.30825   0.14657
C          C       0.06839   0.44934   0.41472   0.55453
C          C       0.69966   0.40319   0.28629   0.29108
C          C       0.91335   0.01612   0.51210   0.50433
C          C       0.58136   0.02122   0.86852   0.18687
C          C       0.78029   0.70046   0.78851   0.63014
C          C       0.60970   0.87582   0.85813  -0.15533
C          C       0.73756   0.85129   0.80799   0.14745
C          C       0.43144   0.05426   0.91504   0.55349
C          C       0.80029   0.09954   0.78590   0.29418
C          C       0.58631   0.48514   0.01191   0.50482
C          C       0.08117   0.51799   0.63160   0.18662
C          C       0.28235   0.19778   0.70997   0.62981
C          C       0.11048   0.37278   0.64156  -0.15641
C          C       0.23899   0.34861   0.69109   0.14739
C          C       0.93178   0.55081   0.58497   0.55397
C          C       0.30004   0.59690   0.71364   0.29126
C          C       0.08606   0.98396   0.48770   0.50378
C          C       0.41855   0.97982   0.13124   0.18574
C          C       0.21973   0.30042   0.21127   0.62951
C          C       0.39015   0.12524   0.14139  -0.15357
C          C       0.26245   0.14972   0.19163   0.14726
C          C       0.56852   0.94680   0.08491   0.55210
C          C       0.19963   0.90149   0.21381   0.29422
C          C       0.41391   0.51834   0.98778   0.50343
N          N       0.82199   0.36925   0.33283  -0.36536
N          N       0.66600   0.53938   0.27177  -0.37538
N          N       0.67838   0.13372   0.83294  -0.36849
N          N       0.83362   0.96326   0.77132  -0.37550
N          N       0.17755   0.63071   0.66722  -0.36503
N          N       0.33446   0.46082   0.72775  -0.37621
N          N       0.32167   0.86732   0.16689  -0.36938
N          N       0.16643   0.03779   0.22834  -0.37409
O          O       0.08744   0.31143   0.41659  -0.68788
O          O       0.82607   0.91215   0.29776  -0.67182
O          O       0.82749   0.06059   0.45627  -0.56283
O          O       0.57796   0.80746   0.26188  -0.62780
O          O       0.87268   0.99538   0.58691  -0.58532
O          O       0.15779   0.55451   0.44411  -0.48211
O          O       0.41238   0.19219   0.91676  -0.68624
O          O       0.67227   0.59104   0.79751  -0.67109
O          O       0.67234   0.44114   0.95574  -0.56499
O          O       0.92123   0.69528   0.76204  -0.62952
O          O       0.62638   0.50349   0.08688  -0.58408
O          O       0.34169   0.94931   0.94440  -0.48067
O          O       0.91266   0.68868   0.58324  -0.68739
O          O       0.17494   0.08839   0.69908  -0.67220
O          O       0.17148   0.93836   0.54334  -0.56049
O          O       0.42185   0.19234   0.73796  -0.62671
O          O       0.12721   0.00592   0.41303  -0.58514
O          O       0.84254   0.44560   0.55550  -0.48229
O          O       0.58770   0.80888   0.08323  -0.68505
O          O       0.32752   0.41002   0.20222  -0.67090
O          O       0.32822   0.56390   0.04364  -0.56307
O          O       0.07884   0.30506   0.23800  -0.63037
O          O       0.37310   0.49669   0.91313  -0.58344
O          O       0.65837   0.05161   0.05552  -0.48010

