data_crystal

_audit_creation_method 'AiiDA-DDEC plugin'

_cell_length_a         9.59004
_cell_length_b        10.42977
_cell_length_c        11.66160

_cell_angle_alpha     74.96311
_cell_angle_beta     85.46993
_cell_angle_gamma     79.93637

_symmetry_space_group_name_Hall 'P 1'
_symmetry_space_group_name_H-M  'P 1'

loop_
_symmetry_equiv_pos_as_xyz
 'x,y,z'

loop_
_atom_site_label
_atom_site_type_symbol
_atom_site_fract_x
_atom_site_fract_y
_atom_site_fract_z
_atom_site_charge
Ca         Ca      0.46990   0.41696   0.35129   1.42751
Ca         Ca      0.53010   0.58303   0.64871   1.42755
Ca         Ca      0.50000  -0.00000   0.50000   1.55083
Ca         Ca      0.50000   0.50000   0.00000   1.44686
H          H       0.03953   0.71636   0.95939   0.15097
H          H       0.75941   0.68021   0.99637   0.13828
H          H       0.36154   0.78219   0.13345   0.16766
H          H       0.35320   0.04945   0.02247   0.15562
H          H       0.96047   0.28364   0.04061   0.15108
H          H       0.24058   0.31978   0.00363   0.13818
H          H       0.63845   0.21780   0.86655   0.16758
H          H       0.64679   0.95055   0.97753   0.15555
C          C       0.21224   0.55226   0.16422   0.56719
C          C       0.06046   0.57780   0.13660   0.07227
C          C       0.99051   0.65597   0.03679  -0.18297
C          C       0.84684   0.63730   0.05535  -0.18780
C          C       0.83694   0.54875   0.16552   0.06926
C          C       0.71585   0.48986   0.22999   0.54395
C          C       0.45948   0.73820   0.39456   0.58340
C          C       0.42509   0.84447   0.28587   0.06855
C          C       0.38445   0.86086   0.17165  -0.13265
C          C       0.38014   0.00031   0.11361  -0.15632
C          C       0.41801   0.06208   0.19471   0.08322
C          C       0.44456   0.19543   0.20038   0.56948
C          C       0.78775   0.44774   0.83578   0.56696
C          C       0.93954   0.42219   0.86340   0.07246
C          C       0.00948   0.34402   0.96321  -0.18298
C          C       0.15315   0.36270   0.94465  -0.18768
C          C       0.16305   0.45125   0.83447   0.06895
C          C       0.28415   0.51014   0.77001   0.54422
C          C       0.54051   0.26179   0.60544   0.58364
C          C       0.57491   0.15553   0.71413   0.06846
C          C       0.61554   0.13914   0.82835  -0.13289
C          C       0.61985  -0.00032   0.88639  -0.15611
C          C       0.58199   0.93792   0.80529   0.08320
C          C       0.55544   0.80456   0.79961   0.56955
O          O       0.29397   0.60572   0.07981  -0.65545
O          O       0.25052   0.48043   0.26607  -0.62957
O          O       0.96696   0.51255   0.21668  -0.08300
O          O       0.72277   0.42251   0.33686  -0.57873
O          O       0.59992   0.51327   0.17159  -0.72386
O          O       0.50621   0.77881   0.47898  -0.71486
O          O       0.44485   0.61900   0.40529  -0.57754
O          O       0.44432   0.96749   0.30071  -0.21558
O          O       0.47520   0.20083   0.30477  -0.68591
O          O       0.43800   0.28876   0.10718  -0.57201
O          O       0.70603   0.39427   0.92019  -0.65524
O          O       0.74947   0.51956   0.73393  -0.62951
O          O       0.03303   0.48745   0.78332  -0.08297
O          O       0.27722   0.57749   0.66314  -0.57881
O          O       0.40007   0.48672   0.82841  -0.72406
O          O       0.49379   0.22119   0.52102  -0.71474
O          O       0.55514   0.38100   0.59471  -0.57790
O          O       0.55568   0.03251   0.69929  -0.21549
O          O       0.52479   0.79917   0.69523  -0.68590
O          O       0.56199   0.71124   0.89282  -0.57194

