data_crystal

_audit_creation_method 'AiiDA-DDEC plugin'

_cell_length_a        11.76272
_cell_length_b        11.94682
_cell_length_c        13.61774

_cell_angle_alpha     111.09012
_cell_angle_beta     90.06359
_cell_angle_gamma     119.54543

_symmetry_space_group_name_Hall 'P 1'
_symmetry_space_group_name_H-M  'P 1'

loop_
_symmetry_equiv_pos_as_xyz
 'x,y,z'

loop_
_atom_site_label
_atom_site_type_symbol
_atom_site_fract_x
_atom_site_fract_y
_atom_site_fract_z
_atom_site_charge
Co         Co      0.02769   0.00054   0.74991   0.84002
Co         Co      0.97232  -0.00054   0.25009   0.84005
H          H       0.17546   0.71346   0.65600   0.11277
H          H       0.21263   0.51655   0.55125   0.11856
H          H       0.97147   0.16518   0.97139   0.12183
H          H       0.79311   0.73032   0.77560   0.13105
H          H       0.65995   0.76202   0.94311   0.12666
H          H       0.75333   0.00303   0.13465   0.11720
H          H       0.83775   0.16153   0.11561   0.11323
H          H       0.51223   0.84008   0.06966   0.10275
H          H       0.29096   0.79304   0.00054   0.11514
H          H       0.46508   0.28759   0.84531   0.11324
H          H       0.69834   0.48645   0.95248   0.11817
H          H       0.80587   0.83565   0.52998   0.12110
H          H       0.06440   0.27148   0.72308   0.13034
H          H       0.89818   0.23759   0.55494   0.12480
H          H       0.74815   0.99384   0.36409   0.11812
H          H       0.67453   0.83699   0.38557   0.11336
H          H       0.67246   0.15898   0.42973   0.10312
H          H       0.49956   0.20754   0.49953   0.11516
H          H       0.82454   0.28654   0.34400   0.11281
H          H       0.78737   0.48346   0.44875   0.11857
H          H       0.02853   0.83482   0.02860   0.12184
H          H       0.20689   0.26968   0.22439   0.13097
H          H       0.34005   0.23798   0.05688   0.12666
H          H       0.24667   0.99697   0.86535   0.11731
H          H       0.16225   0.83847   0.88439   0.11324
H          H       0.48777   0.15992   0.93034   0.10280
H          H       0.70904   0.20696  -0.00055   0.11519
H          H       0.53492   0.71241   0.15468   0.11320
H          H       0.30166   0.51355   0.04752   0.11821
H          H       0.19413   0.16435   0.47002   0.12109
H          H       0.93560   0.72852   0.27692   0.13034
H          H       0.10182   0.76241   0.44505   0.12475
H          H       0.25185   0.00616   0.63591   0.11803
H          H       0.32547   0.16301   0.61443   0.11339
H          H       0.32754   0.84102   0.57027   0.10312
H          H       0.50044   0.79246   0.50047   0.11512
C          C       0.95636   0.72761   0.61625   0.54145
C          C       0.97928   0.60987   0.55789  -0.03396
C          C       0.09946   0.61976   0.58735  -0.11571
C          C       0.12027   0.51103   0.52980  -0.10594
C          C       0.90550   0.05159   0.94122   0.07915
C          C       0.81071   0.82455   0.84241  -0.04127
C          C       0.74366   0.83904   0.92380  -0.10792
C          C       0.75937   0.04911   0.07684  -0.12395
C          C       0.62569   0.02654   0.03946   0.07908
C          C       0.50685   0.91040   0.03927  -0.13153
C          C       0.38228   0.88382   0.00014  -0.13561
C          C       0.22982   0.27007   0.88133   0.54165
C          C       0.36987   0.38911   0.94085  -0.03384
C          C       0.48141   0.38083   0.91342  -0.11435
C          C       0.61045   0.49053   0.97220  -0.10619
C          C       0.85387   0.94924   0.55944   0.07891
C          C       0.98709   0.17674   0.65683  -0.04103
C          C       0.90488   0.16117   0.57510  -0.10517
C          C       0.70915   0.94955   0.42301  -0.12391
C          C       0.59843   0.97265   0.46020   0.07944
C          C       0.59654   0.08903   0.46029  -0.13216
C          C       0.49939   0.11652   0.49997  -0.13588
C          C       0.04364   0.27239   0.38374   0.54131
C          C       0.02072   0.39013   0.44210  -0.03387
C          C       0.90054   0.38024   0.41264  -0.11573
C          C       0.87973   0.48897   0.47020  -0.10585
C          C       0.09450   0.94841   0.05877   0.07916
C          C       0.18929   0.17545   0.15758  -0.04115
C          C       0.25634   0.16096   0.07620  -0.10792
C          C       0.24063   0.95089   0.92316  -0.12399
C          C       0.37431   0.97346   0.96054   0.07905
C          C       0.49315   0.08960   0.96072  -0.13145
C          C       0.61772   0.11618  -0.00014  -0.13556
C          C       0.77018   0.72993   0.11867   0.54173
C          C       0.63013   0.61089   0.05915  -0.03393
C          C       0.51859   0.61917   0.08658  -0.11435
C          C       0.38955   0.50947   0.02779  -0.10633
C          C       0.14613   0.05076   0.44055   0.07892
C          C       0.01291   0.82326   0.34317  -0.04099
C          C       0.09512   0.83883   0.42490  -0.10519
C          C       0.29085   0.05045   0.57699  -0.12395
C          C       0.40157   0.02735   0.53980   0.07950
C          C       0.40346   0.91097   0.53971  -0.13231
C          C       0.50061   0.88348   0.50003  -0.13587
N          N       0.91163   0.95797   0.85385  -0.31846
N          N       0.80482   0.98297   0.98565   0.05923
N          N       0.95434   0.04368   0.64647  -0.31780
N          N       0.82160   0.01699   0.51415   0.05928
N          N       0.08837   0.04203   0.14614  -0.31860
N          N       0.19518   0.01703   0.01435   0.05929
N          N       0.04566   0.95632   0.35352  -0.31771
N          N       0.17840   0.98301   0.48584   0.05928
O          O       0.06219   0.84714   0.68121  -0.57511
O          O       0.84220   0.70868   0.60040  -0.55078
O          O       0.21760   0.15143   0.81670  -0.57308
O          O       0.13299   0.28646   0.89577  -0.55115
O          O       0.93781   0.15286   0.31879  -0.57504
O          O       0.15779   0.29132   0.39960  -0.55078
O          O       0.78240   0.84857   0.18329  -0.57318
O          O       0.86701   0.71354   0.10423  -0.55117

