data_crystal

_audit_creation_method 'AiiDA-DDEC plugin'

_cell_length_a         4.49475
_cell_length_b        12.83020
_cell_length_c        12.74521

_cell_angle_alpha     88.37131
_cell_angle_beta     79.67465
_cell_angle_gamma     79.57130

_symmetry_space_group_name_Hall 'P 1'
_symmetry_space_group_name_H-M  'P 1'

loop_
_symmetry_equiv_pos_as_xyz
 'x,y,z'

loop_
_atom_site_label
_atom_site_type_symbol
_atom_site_fract_x
_atom_site_fract_y
_atom_site_fract_z
_atom_site_charge
Cu         Cu      0.00000   0.50000   0.50000   0.81159
Cu         Cu      0.00000  -0.00000   0.00000   0.81220
Cu         Cu      0.00000   0.50000   0.00000   0.81421
Cu         Cu      0.50000  -0.00000   0.50000   0.81173
H          H       0.34677   0.32500   0.68010   0.11545
H          H       0.35288   0.17399   0.81769   0.11644
H          H       0.16595   0.68246   0.17422   0.11559
H          H       0.01673   0.82005   0.32717   0.11583
H          H       0.65324   0.67499   0.31990   0.11558
H          H       0.64713   0.82601   0.18231   0.11651
H          H       0.83406   0.31753   0.82578   0.11566
H          H       0.98328   0.17994   0.67284   0.11587
C          C       0.58842   0.31204   0.69203  -0.12899
C          C       0.75653   0.38379   0.62093   0.57932
C          C       0.59334   0.18671   0.80635  -0.12853
C          C       0.76179   0.11539   0.87809   0.57799
C          C       0.39463   0.69367   0.18739  -0.12726
C          C       0.63670   0.62193   0.11549   0.57932
C          C       0.27078   0.80775   0.31404  -0.12691
C          C       0.36935   0.87881   0.38542   0.57557
C          C       0.41159   0.68795   0.30797  -0.12883
C          C       0.24348   0.61621   0.37908   0.57915
C          C       0.40667   0.81329   0.19366  -0.12862
C          C       0.23822   0.88461   0.12191   0.57805
C          C       0.60538   0.30632   0.81261  -0.12743
C          C       0.36330   0.37806   0.88451   0.57962
C          C       0.72922   0.19225   0.68596  -0.12674
C          C       0.63066   0.12118   0.61458   0.57548
O          O       0.95773   0.43034   0.65030  -0.47804
O          O       0.70209   0.40039   0.52590  -0.49425
O          O       0.04068   0.06844   0.84938  -0.47823
O          O       0.62661   0.09992   0.97328  -0.49464
O          O       0.88646   0.65018   0.06841  -0.47713
O          O       0.59958   0.52714   0.09973  -0.49482
O          O       0.60012   0.84909   0.43224  -0.47733
O          O       0.22412   0.97425   0.40059  -0.49437
O          O       0.04228   0.56966   0.34970  -0.47801
O          O       0.29791   0.59961   0.47410  -0.49414
O          O       0.95933   0.93156   0.15062  -0.47842
O          O       0.37340   0.90007   0.02672  -0.49466
O          O       0.11355   0.34982   0.93159  -0.47709
O          O       0.40042   0.47285   0.90027  -0.49518
O          O       0.39988   0.15090   0.56776  -0.47759
O          O       0.77588   0.02575   0.59942  -0.49398

