data_crystal

_audit_creation_method 'AiiDA-DDEC plugin'

_cell_length_a         7.17418
_cell_length_b        10.68998
_cell_length_c        10.66305

_cell_angle_alpha     71.55779
_cell_angle_beta     70.36061
_cell_angle_gamma     70.17206

_symmetry_space_group_name_Hall 'P 1'
_symmetry_space_group_name_H-M  'P 1'

loop_
_symmetry_equiv_pos_as_xyz
 'x,y,z'

loop_
_atom_site_label
_atom_site_type_symbol
_atom_site_fract_x
_atom_site_fract_y
_atom_site_fract_z
_atom_site_charge
Ni         Ni      0.00372   0.82252   0.17309   1.02929
Ni         Ni      0.49636   0.32218   0.67329   1.03212
H          H       0.22399   0.68507   0.81299   0.14201
H          H       0.87491   0.02699   0.46856   0.12788
H          H       0.77354   0.18725   0.31490   0.14214
H          H       0.12747   0.52515   0.96896   0.13012
C          C       0.01883   0.88489   0.76710  -0.01364
C          C       0.92259   0.98243   0.66800   0.01189
C          C       0.96386   0.90992   0.90770   0.53868
C          C       0.77837   0.11795   0.68563   0.54045
C          C       0.97953   0.22920   0.11504  -0.01530
C          C       0.07615   0.32679   0.01582   0.01333
C          C       0.03622   0.08753   0.09266   0.53774
C          C       0.21784   0.30644   0.88018   0.53764
C          C       0.82604   0.38599   0.26765  -0.01647
C          C       0.92402   0.48286   0.16848   0.01883
C          C       0.71684   0.41109   0.40834   0.54269
C          C       0.91498   0.61811   0.18654   0.53228
C          C       0.17199   0.72877   0.61390  -0.01521
C          C       0.07681   0.82714   0.51484   0.01349
C          C       0.27925   0.58741   0.59081   0.53809
C          C       0.08948   0.80750   0.37935   0.53424
C          C       0.14552   0.75933   0.73833  -0.09280
C          C       0.95453   0.95296   0.54279  -0.11028
C          C       0.85236   0.26065   0.23938  -0.09293
C          C       0.04610   0.45246   0.04342  -0.11446
O          O       0.09263   0.83759   0.98159  -0.47022
O          O       0.79818   0.99354   0.94359  -0.31754
O          O       0.58847   0.13037   0.69372  -0.42187
O          O       0.83569   0.22006   0.67500  -0.42042
O          O       0.90840   0.01340   0.16319  -0.46680
O          O       0.20470   0.05042   0.01202  -0.31623
O          O       0.40933   0.29464   0.86647  -0.41616
O          O       0.15652   0.31882   0.77881  -0.41991
O          O       0.58403   0.34086   0.48143  -0.47115
O          O       0.76617   0.49255   0.44453  -0.31696
O          O       0.08413   0.63042   0.19476  -0.41656
O          O       0.76518   0.72040   0.17576  -0.41921
O          O       0.40927   0.51255   0.66299  -0.47092
O          O       0.23059   0.55126   0.50864  -0.31566
O          O       0.92203   0.79802   0.36588  -0.41365
O          O       0.23967   0.81862   0.27750  -0.41856

