data_crystal

_audit_creation_method 'AiiDA-DDEC plugin'

_cell_length_a         6.44904
_cell_length_b        15.29118
_cell_length_c        15.31328

_cell_angle_alpha     118.15233
_cell_angle_beta     98.08438
_cell_angle_gamma     98.14121

_symmetry_space_group_name_Hall 'P 1'
_symmetry_space_group_name_H-M  'P 1'

loop_
_symmetry_equiv_pos_as_xyz
 'x,y,z'

loop_
_atom_site_label
_atom_site_type_symbol
_atom_site_fract_x
_atom_site_fract_y
_atom_site_fract_z
_atom_site_charge
Zn         Zn      0.04597   0.73361   0.41753   0.98280
Zn         Zn      0.31591   0.68415   0.26628   0.98258
Zn         Zn      0.62920   0.57911   0.31538   0.98293
Zn         Zn      0.95402   0.26639   0.58246   0.98283
Zn         Zn      0.68409   0.31584   0.73372   0.98258
Zn         Zn      0.37080   0.42089   0.68462   0.98290
H          H       0.88667   0.02296   0.56799   0.13957
H          H       0.86316   0.54490   0.97647   0.14030
H          H       0.31854   0.43218   0.45486   0.14224
H          H       0.11333   0.97704   0.43201   0.13964
H          H       0.13683   0.45509   0.02352   0.14031
H          H       0.68146   0.56781   0.54513   0.14220
C          C       0.71039   0.83170   0.43441   0.62640
C          C       0.59185   0.91441   0.46787  -0.15338
C          C       0.36808   0.90018   0.42926   0.30217
C          C       0.71670   0.01320   0.53841  -0.18842
C          C       0.88011   0.60195   0.16809   0.62629
C          C       0.67882   0.55291   0.08522  -0.14658
C          C       0.46956   0.52855   0.09963   0.30106
C          C       0.70328   0.52518   0.98654  -0.19238
C          C       0.27494   0.56536   0.39705   0.62706
C          C       0.12376   0.53202   0.44657  -0.14997
C          C       0.93868   0.57037   0.47093   0.30003
C          C       0.17830   0.46172   0.47476  -0.19186
C          C       0.28960   0.16829   0.56558   0.62640
C          C       0.40814   0.08559   0.53212  -0.15362
C          C       0.63192   0.09981   0.57074   0.30262
C          C       0.28330   0.98680   0.46158  -0.18829
C          C       0.11988   0.39805   0.83190   0.62609
C          C       0.32117   0.44708   0.91477  -0.14649
C          C       0.53044   0.47144   0.90037   0.30107
C          C       0.29671   0.47481   0.01346  -0.19234
C          C       0.72505   0.43464   0.60294   0.62719
C          C       0.87623   0.46797   0.55343  -0.15028
C          C       0.06132   0.42962   0.52907   0.30056
C          C       0.82169   0.53827   0.52523  -0.19168
O          O       0.89698   0.84850   0.48801  -0.50431
O          O       0.63195   0.74644   0.34947  -0.60912
O          O       0.22975   0.80758   0.36383  -0.59725
O          O       0.05108   0.63822   0.15162  -0.50464
O          O       0.88461   0.60265   0.25329  -0.61025
O          O       0.42555   0.55573   0.19228  -0.59760
O          O       0.40762   0.51153   0.36040  -0.50422
O          O       0.28032   0.64994   0.39639  -0.60762
O          O       0.86523   0.63532   0.44347  -0.59616
O          O       0.10302   0.15150   0.51198  -0.50414
O          O       0.36804   0.25356   0.65052  -0.60922
O          O       0.77025   0.19241   0.63617  -0.59745
O          O       0.94891   0.36177   0.84838  -0.50445
O          O       0.11539   0.39734   0.74671  -0.61024
O          O       0.57445   0.44427   0.80772  -0.59769
O          O       0.59238   0.48846   0.63959  -0.50447
O          O       0.71967   0.35006   0.60361  -0.60750
O          O       0.13476   0.36467   0.55652  -0.59618

