data_crystal

_audit_creation_method 'AiiDA-DDEC plugin'

_cell_length_a         8.50690
_cell_length_b        11.64762
_cell_length_c        11.64782

_cell_angle_alpha     73.70590
_cell_angle_beta     75.57355
_cell_angle_gamma     75.51121

_symmetry_space_group_name_Hall 'P 1'
_symmetry_space_group_name_H-M  'P 1'

loop_
_symmetry_equiv_pos_as_xyz
 'x,y,z'

loop_
_atom_site_label
_atom_site_type_symbol
_atom_site_fract_x
_atom_site_fract_y
_atom_site_fract_z
_atom_site_charge
Sr         Sr      0.24982   0.52758   0.47306   1.52302
Sr         Sr      0.74970   0.47516   0.52520   1.52539
Ni         Ni      0.00314   0.49928  -0.00016   0.46574
Ni         Ni      0.49713   0.00086   0.50083   0.46487
H          H       0.54448   0.71969   0.42913   0.38360
H          H       0.55624   0.66525   0.31489   0.38678
H          H       0.44571   0.70032   0.74396   0.13097
H          H       0.55642   0.73009   0.91744   0.12905
H          H       0.19318   0.53809   0.16929   0.11421
H          H       0.95640   0.57070   0.28313   0.38836
H          H       0.94283   0.68511   0.33802   0.38583
H          H       0.05360   0.25614   0.29982   0.13122
H          H       0.94268   0.08246   0.27124   0.13005
H          H       0.30767   0.83122   0.46285   0.11360
H          H       0.45276   0.28498   0.57183   0.38615
H          H       0.44283   0.34059   0.68463   0.38683
H          H       0.55585   0.30221   0.25497   0.13318
H          H       0.44479   0.27329   0.08076   0.12963
H          H       0.81231   0.46138   0.82982   0.11352
H          H       0.04726   0.42879   0.71490   0.38684
H          H       0.05614   0.31555   0.66035   0.38749
H          H       0.94490   0.74499   0.69823   0.13315
H          H       0.05556   0.91892   0.72739   0.13028
H          H       0.68779   0.17025   0.53912   0.11331
C          C       0.26018   0.60980   0.86817   0.06948
C          C       0.39190   0.66983   0.83957  -0.09674
C          C       0.45279   0.68447   0.93465  -0.04472
C          C       0.38305   0.63470   0.05488  -0.04666
C          C       0.24791   0.57818   0.07660   0.07391
C          C       0.19053   0.57705   0.77920   0.53697
C          C       0.44986   0.62992   0.16589   0.57240
C          C       0.23997   0.13240   0.39020   0.06652
C          C       0.10788   0.16060   0.33051  -0.09582
C          C       0.04682   0.06530   0.31647  -0.04602
C          C       0.11654   0.94512   0.36685  -0.04564
C          C       0.25261   0.92379   0.42246   0.07546
C          C       0.30932   0.22152   0.42295   0.54001
C          C       0.04873   0.83381   0.37390   0.57109
C          C       0.74352   0.39056   0.13095   0.06887
C          C       0.61057   0.33180   0.15938  -0.09837
C          C       0.54968   0.31748   0.06417  -0.04453
C          C       0.62046   0.36664   0.94411  -0.04833
C          C       0.75692   0.42178   0.92251   0.08019
C          C       0.81319   0.42224   0.22049   0.53502
C          C       0.55275   0.37251   0.83331   0.57310
C          C       0.75650   0.86909   0.61015   0.06893
C          C       0.88973   0.84058   0.66880  -0.09535
C          C       0.95056   0.93578   0.68315  -0.04707
C          C       0.87935   0.05588   0.63409  -0.04801
C          C       0.74302   0.07749   0.57876   0.07881
C          C       0.68673   0.77980   0.57831   0.53405
C          C       0.94566   0.16709   0.62860   0.57441
N          N       0.18634   0.56798   0.98548  -0.17069
N          N       0.31424   0.01512   0.43204  -0.17106
N          N       0.81869   0.43148   0.01379  -0.17444
N          N       0.68132   0.98630   0.56903  -0.17395
O          O       0.06401   0.52147   0.83009  -0.47572
O          O       0.24661   0.59999   0.66814  -0.51120
O          O       0.55899   0.68995   0.15545  -0.54422
O          O       0.38803   0.55934   0.26254  -0.66667
O          O       0.53964   0.64576   0.40641  -0.83743
O          O       0.43583   0.17059   0.47870  -0.47723
O          O       0.25302   0.33264   0.39997  -0.51192
O          O       0.93844   0.84341   0.31496  -0.54319
O          O       0.11085   0.73790   0.44538  -0.66381
O          O       0.96061   0.59341   0.35716  -0.84138
O          O       0.94274   0.47483   0.17049  -0.47774
O          O       0.75439   0.40062   0.33119  -0.51054
O          O       0.43900   0.31637   0.84434  -0.54529
O          O       0.61847   0.44050   0.73642  -0.66451
O          O       0.45968   0.35911   0.59311  -0.83754
O          O       0.55740   0.83027   0.52533  -0.47578
O          O       0.74527   0.66899   0.59993  -0.51008
O          O       0.05691   0.15706   0.68665  -0.54491
O          O       0.88136   0.26353   0.55911  -0.66571
O          O       0.04031   0.40716   0.64097  -0.83999

