data_crystal

_audit_creation_method 'AiiDA-DDEC plugin'

_cell_length_a         9.53639
_cell_length_b        12.08619
_cell_length_c        12.26230

_cell_angle_alpha     114.11326
_cell_angle_beta     105.74611
_cell_angle_gamma     104.85809

_symmetry_space_group_name_Hall 'P 1'
_symmetry_space_group_name_H-M  'P 1'

loop_
_symmetry_equiv_pos_as_xyz
 'x,y,z'

loop_
_atom_site_label
_atom_site_type_symbol
_atom_site_fract_x
_atom_site_fract_y
_atom_site_fract_z
_atom_site_charge
Zn         Zn      0.68711   0.49371   0.97289   0.20006
Zn         Zn      0.19516   0.47840   0.51396   0.20510
Zn         Zn      0.70974   0.03410   0.51849   0.25153
Zn         Zn      0.31283   0.50625   0.02708   0.19724
Zn         Zn      0.80474   0.52164   0.48616   0.19991
Zn         Zn      0.29024   0.96596   0.48147   0.24729
H          H       0.19439   0.66369   0.92301   0.15300
H          H       0.24038   0.73469   0.82785   0.15481
H          H       0.07833   0.57702   0.74783   0.13110
H          H       0.63678   0.42033   0.69960   0.14302
H          H       0.45761   0.35358   0.55564   0.13281
H          H       0.60372   0.51823   0.62789   0.08576
H          H       0.52721   0.25274   0.32863   0.15557
H          H       0.50624   0.08454   0.26061   0.15710
H          H       0.49711   0.16497   0.41368   0.12851
H          H       0.21631   0.27863   0.58676   0.14002
H          H       0.10456   0.20834   0.65529   0.13737
H          H       0.08593   0.10635   0.49370   0.08592
H          H       0.27688   0.07513   0.74051   0.15259
H          H       0.42362   0.16864   0.90802   0.15798
H          H       0.33972   0.25140   0.83798   0.12816
H          H       0.93201   0.32958   0.71896   0.14728
H          H       0.91072   0.46397   0.83717   0.13017
H          H       0.99214   0.36525   0.88445   0.06608
H          H       0.80563   0.33625   0.07693   0.15302
H          H       0.75958   0.26528   0.17211   0.15474
H          H       0.92170   0.42292   0.25211   0.13117
H          H       0.36317   0.57954   0.30029   0.14310
H          H       0.54233   0.64634   0.44430   0.13286
H          H       0.39634   0.48164   0.37200   0.08610
H          H       0.47285   0.74720   0.67139   0.15564
H          H       0.49375   0.91540   0.73940   0.15700
H          H       0.50301   0.83500   0.58638   0.12894
H          H       0.78376   0.72136   0.41337   0.14012
H          H       0.89541   0.79161   0.34476   0.13759
H          H       0.91424   0.89363   0.50639   0.08596
H          H       0.72321   0.92492   0.25952   0.15224
H          H       0.57644   0.83141   0.09203   0.15812
H          H       0.66038   0.74866   0.16202   0.12829
H          H       0.06808   0.67049   0.28107   0.14707
H          H       0.08931   0.53606   0.16282   0.13022
H          H       0.00801   0.63486   0.11559   0.06639
C          C       0.19977   0.64142   0.82847  -0.46408
C          C       0.31157   0.57684   0.80990   0.37062
C          C       0.46328   0.49312   0.73488   0.36630
C          C       0.54467   0.44400   0.65051  -0.47120
C          C       0.55630   0.18098   0.35248  -0.46496
C          C       0.73309   0.22966   0.42057   0.37095
C          C       0.96909   0.24016   0.51018   0.36596
C          C       0.10039   0.20670   0.56415  -0.46949
C          C       0.37968   0.17026   0.81637  -0.46647
C          C       0.50870   0.19187   0.77131   0.37496
C          C       0.73460   0.27240   0.76453   0.37017
C          C       0.89999   0.36138   0.80240  -0.46171
C          C       0.80025   0.35854   0.17148  -0.46427
C          C       0.68853   0.42319   0.19009   0.37097
C          C       0.53681   0.50689   0.26508   0.36547
C          C       0.45532   0.55592   0.34941  -0.47150
C          C       0.44375   0.81896   0.64754  -0.46566
C          C       0.26696   0.77027   0.57938   0.37183
C          C       0.03098   0.75976   0.48981   0.36637
C          C       0.89966   0.79326   0.43592  -0.46962
C          C       0.62042   0.82979   0.18367  -0.46654
C          C       0.49143   0.80813   0.22876   0.37513
C          C       0.26554   0.72762   0.23553   0.37100
C          C       0.10009   0.63868   0.19763  -0.46181
N          N       0.48029   0.48767   0.84472  -0.22161
N          N       0.38235   0.54134   0.89230  -0.20644
N          N       0.35878   0.54787   0.70955  -0.38577
N          N       0.99113   0.35518   0.51155  -0.22021
N          N       0.83930   0.34811   0.45426  -0.20659
N          N       0.80954   0.15925   0.45437  -0.38909
N          N       0.63927   0.15975   0.64661  -0.23003
N          N       0.49444   0.10864   0.65186  -0.21598
N          N       0.65714   0.29586   0.84478  -0.38344
N          N       0.52001   0.51259   0.15539  -0.22162
N          N       0.61796   0.45893   0.10782  -0.20612
N          N       0.64116   0.45200   0.29034  -0.38538
N          N       0.00889   0.64461   0.48815  -0.21956
N          N       0.16073   0.65168   0.54542  -0.20761
N          N       0.19054   0.84076   0.54577  -0.38980
N          N       0.36095   0.84011   0.35355  -0.23038
N          N       0.50578   0.89121   0.34831  -0.21631
N          N       0.34293   0.70425   0.15523  -0.38347

