data_crystal

_audit_creation_method 'AiiDA-DDEC plugin'

_cell_length_a         9.65534
_cell_length_b         9.65547
_cell_length_c        12.89429

_cell_angle_alpha     89.92395
_cell_angle_beta     90.07555
_cell_angle_gamma     94.59729

_symmetry_space_group_name_Hall 'P 1'
_symmetry_space_group_name_H-M  'P 1'

loop_
_symmetry_equiv_pos_as_xyz
 'x,y,z'

loop_
_atom_site_label
_atom_site_type_symbol
_atom_site_fract_x
_atom_site_fract_y
_atom_site_fract_z
_atom_site_charge
Li         Li      0.04563   0.12385   0.09936   0.83432
Li         Li      0.95487   0.87546   0.59809   0.83388
Li         Li      0.87545   0.95488   0.40191   0.83391
Li         Li      0.12385   0.04563   0.90064   0.83430
Li         Li      0.06988   0.93092   0.25096   0.80707
Li         Li      0.93091   0.06988   0.74904   0.80704
Li         Li      0.25779   0.74250   0.24957   0.89826
Li         Li      0.74250   0.25780   0.75042   0.89830
H          H       0.00440   0.36105   0.65610   0.10020
H          H       0.01962   0.17599   0.52572   0.11161
H          H       0.06153   0.48122   0.28322   0.10486
H          H       0.00407   0.60839   0.60045   0.11074
H          H       0.99551   0.64051   0.15537   0.09920
H          H       0.98009   0.82471   0.02419   0.11009
H          H       0.93858   0.51835   0.78293   0.10480
H          H       0.99612   0.39277   0.10094   0.11051
H          H       0.64051   0.99551   0.84463   0.09935
H          H       0.82471   0.98010   0.97581   0.10997
H          H       0.51835   0.93859   0.21706   0.10466
H          H       0.39278   0.99612   0.89906   0.11055
H          H       0.36104   0.00441   0.34390   0.10023
H          H       0.17597   0.01962   0.47428   0.11172
H          H       0.48121   0.06154   0.71678   0.10483
H          H       0.60838   0.00407   0.39954   0.11070
C          C       0.01299   0.38834   0.57421  -0.10509
C          C       0.02300   0.28358   0.50059  -0.07955
C          C       0.04003   0.31661   0.39515  -0.04299
C          C       0.04778   0.45640   0.36497  -0.11597
C          C       0.03374   0.56175   0.43821  -0.07233
C          C       0.01549   0.52701   0.54344  -0.08487
C          C       0.05090   0.20325   0.31602   0.62957
C          C       0.03444   0.70962   0.40453   0.66533
C          C       0.98690   0.61258   0.07363  -0.10253
C          C       0.97679   0.71705  -0.00049  -0.08024
C          C       0.95985   0.68373   0.89416  -0.04040
C          C       0.95214   0.54372   0.86460  -0.11619
C          C       0.96605   0.43846   0.93826  -0.07137
C          C       0.98440   0.47373   0.04344  -0.08547
C          C       0.94910   0.79693   0.81448   0.62887
C          C       0.96563   0.29037   0.90492   0.65995
C          C       0.61259   0.98691   0.92637  -0.10284
C          C       0.71705   0.97679   0.00049  -0.08010
C          C       0.68373   0.95985   0.10584  -0.04054
C          C       0.54372   0.95214   0.13539  -0.11603
C          C       0.43846   0.96605   0.06174  -0.07150
C          C       0.47373   0.98440   0.95656  -0.08516
C          C       0.79692   0.94910   0.18552   0.62906
C          C       0.29037   0.96564   0.09508   0.65992
C          C       0.38833   0.01299   0.42578  -0.10522
C          C       0.28357   0.02300   0.49941  -0.07926
C          C       0.31660   0.04004   0.60484  -0.04299
C          C       0.45640   0.04778   0.63503  -0.11595
C          C       0.56175   0.03374   0.56179  -0.07238
C          C       0.52700   0.01549   0.45656  -0.08483
C          C       0.20324   0.05091   0.68398   0.62954
C          C       0.70961   0.03445   0.59547   0.66548
O          O       0.07636   0.23634   0.22236  -0.66113
O          O       0.03490   0.07720   0.34930  -0.75000
O          O       0.09065   0.74377   0.31640  -0.79895
O          O       0.97836   0.79700   0.46078  -0.69845
O          O       0.92387   0.76332   0.72086  -0.66033
O          O       0.96499   0.92318   0.84705  -0.75063
O          O       0.91061   0.25642   0.81608  -0.79714
O          O       0.02098   0.20314   0.96214  -0.69564
O          O       0.76331   0.92387   0.27914  -0.66042
O          O       0.92318   0.96499   0.15294  -0.75085
O          O       0.25641   0.91062   0.18392  -0.79719
O          O       0.20313   0.02099   0.03785  -0.69545
O          O       0.23634   0.07637   0.77764  -0.66118
O          O       0.07719   0.03491   0.65070  -0.74999
O          O       0.74376   0.09065   0.68359  -0.79905
O          O       0.79700   0.97836   0.53921  -0.69860

