data_crystal

_audit_creation_method 'AiiDA-DDEC plugin'

_cell_length_a         9.33076
_cell_length_b        11.19961
_cell_length_c        11.71354

_cell_angle_alpha     92.30605
_cell_angle_beta     113.62654
_cell_angle_gamma     105.72862

_symmetry_space_group_name_Hall 'P 1'
_symmetry_space_group_name_H-M  'P 1'

loop_
_symmetry_equiv_pos_as_xyz
 'x,y,z'

loop_
_atom_site_label
_atom_site_type_symbol
_atom_site_fract_x
_atom_site_fract_y
_atom_site_fract_z
_atom_site_charge
Co         Co     -0.00300   0.49993   0.49660   0.67939
Mo         Mo      0.40080   0.66629   0.75330   1.32427
Mo         Mo      0.54742   0.61540   0.04286   0.93068
Mo         Mo      0.49411   0.89930   0.87520   0.81193
Mo         Mo      0.57142   0.33506   0.22646   1.22164
Mo         Mo      0.44632   0.37864   0.96529   1.00072
Mo         Mo      0.52326   0.12061   0.14442   0.65692
H          H       0.87076   0.55637   0.21505   0.11289
H          H       0.25578   0.76075   0.54653   0.07934
H          H       0.34415   0.92922   0.43880   0.12471
H          H       0.18742   0.91225   0.20375   0.09574
H          H       0.96119   0.57427   0.74154   0.09267
H          H       0.79890   0.67371   0.38696   0.06899
H          H       0.66294   0.81114   0.44281   0.11259
H          H       0.66812   0.82296   0.66159   0.14923
H          H       0.13003   0.77815   0.89752   0.25085
H          H       0.20063   0.79372   0.04763   0.25547
H          H       0.12801   0.44318   0.78236   0.10234
H          H       0.74363   0.23929   0.45276   0.09846
H          H       0.65497   0.07144   0.56253   0.12102
H          H       0.81225   0.08811   0.79629   0.08971
H          H       0.03766   0.42399   0.25801   0.09069
H          H       0.19918   0.32835   0.61279   0.07703
H          H       0.33761   0.18979   0.55874   0.11333
H          H       0.32938   0.17645   0.34068   0.13636
H          H       0.86787   0.22081   0.10052   0.23849
H          H       0.80417   0.21048   0.95316   0.23732
C          C       0.91925   0.71660   0.05628   0.19033
C          C       0.01950   0.73006   0.19112  -0.04473
C          C       0.97544   0.64006   0.26248   0.02660
C          C       0.18967   0.75165   0.44643   0.08640
C          C       0.24079   0.84705   0.38434  -0.11998
C          C       0.15673   0.83775   0.25418  -0.11331
C          C       0.82798   0.70199   0.84577   0.21316
C          C       0.82154   0.70318   0.71828  -0.03955
C          C       0.89629   0.62813   0.67796   0.03012
C          C       0.80575   0.68357   0.48080   0.08503
C          C       0.72615   0.76012   0.51219  -0.13149
C          C       0.73399   0.77016   0.63364  -0.09190
C          C       0.08631   0.28477   0.94470   0.18197
C          C       0.98307   0.27004   0.81160  -0.03954
C          C       0.02417   0.35892   0.73857   0.02203
C          C       0.80857   0.24704   0.55307   0.08116
C          C       0.75939   0.15311   0.61745  -0.12364
C          C       0.84603   0.16350   0.74761  -0.11272
C          C       0.17427   0.29375   0.15461   0.21461
C          C       0.17636   0.29454   0.28022  -0.04387
C          C       0.10163   0.36941   0.32112   0.03954
C          C       0.19300   0.31678   0.51953   0.08154
C          C       0.27357   0.24063   0.48938  -0.13066
C          C       0.26453   0.22989   0.36760  -0.09573
N          N       0.75221   0.68960   0.00189  -0.24519
N          N       0.69909   0.68483   0.87212  -0.26252
N          N       0.96258   0.72378   0.95788   0.10718
N          N       0.11707   0.72765   0.96765  -0.44885
N          N       0.05884   0.64613   0.38798  -0.20156
N          N       0.88939   0.61745   0.56085  -0.20549
N          N       0.25353   0.31952  -0.00138  -0.29085
N          N       0.30766   0.31163   0.13040  -0.33790
N          N       0.04168   0.27577   0.04259   0.09414
N          N       0.88788   0.27704   0.03466  -0.42842
N          N       0.94033   0.35078   0.61345  -0.20348
N          N       0.10725   0.38043   0.43745  -0.19254
O          O       0.40223   0.51268   0.86133  -0.82765
O          O       0.49788   0.82491   0.71129  -0.83052
O          O       0.21172   0.57491   0.63222  -0.69987
O          O       0.45388   0.73921   0.93625  -0.77855
O          O       0.60367   0.48919   0.13824  -0.79068
O          O       0.51202   0.17705   0.29708  -0.73445
O          O       0.77490   0.41096   0.34960  -0.71607
O          O       0.54166   0.25271   0.04442  -0.71650
O          O       0.50521   0.00288   0.00999  -0.72840

