data_crystal

_audit_creation_method 'AiiDA-DDEC plugin'

_cell_length_a         4.18919
_cell_length_b         9.53872
_cell_length_c        13.93991

_cell_angle_alpha     77.71371
_cell_angle_beta     63.12758
_cell_angle_gamma     64.98551

_symmetry_space_group_name_Hall 'P 1'
_symmetry_space_group_name_H-M  'P 1'

loop_
_symmetry_equiv_pos_as_xyz
 'x,y,z'

loop_
_atom_site_label
_atom_site_type_symbol
_atom_site_fract_x
_atom_site_fract_y
_atom_site_fract_z
_atom_site_charge
Tb         Tb      0.75946   0.65593   0.20870   1.95421
Tb         Tb      0.21881   0.34589   0.79744   1.95609
H          H       0.21078   0.15426   0.05887   0.12399
H          H       0.98816   0.28841   0.54770   0.13255
H          H       0.77225   0.84526   0.94689   0.12539
H          H       0.99171   0.71267   0.45857   0.13224
C          C       0.07239   0.91875   0.19980   0.51943
C          C       0.01662   0.96385   0.09785   0.11352
C          C       0.13874   0.07975   0.02967   0.05435
C          C       0.27124   0.42078   0.35011   0.52404
C          C       0.85657   0.45845   0.42719   0.09651
C          C       0.76145   0.38196   0.52819   0.10421
C          C       0.17450   0.44580   0.00823   0.49498
C          C       0.90610   0.08295   0.80645   0.52600
C          C       0.96215   0.03695   0.90835   0.11260
C          C       0.84150   0.92057   0.97631   0.05297
C          C       0.70891   0.58013   0.65630   0.52307
C          C       0.12310   0.54241   0.57907   0.09438
C          C       0.21816   0.61892   0.47810   0.10568
C          C       0.80023   0.55450  -0.00081   0.49516
N          N       0.88643   0.88038   0.06989  -0.28977
N          N       0.58021   0.57706   0.40323  -0.32811
N          N       0.09223   0.12042   0.93633  -0.28646
N          N       0.39946   0.42391   0.60308  -0.32837
O          O       0.97077   0.80644   0.25681  -0.69036
O          O       0.25323   0.97693   0.21940  -0.47170
O          O       0.31727   0.51396   0.26479  -0.70678
O          O       0.52862   0.32067   0.37497  -0.46720
O          O       0.22429   0.45966   0.08802  -0.54224
O          O       0.40597   0.34708   0.93498  -0.62207
O          O       0.01040   0.19463   0.74954  -0.69008
O          O       0.72297   0.02632   0.78655  -0.47773
O          O       0.66326   0.48681   0.74159  -0.70934
O          O       0.45100   0.68039   0.63176  -0.46552
O          O       0.75052   0.54046   0.91939  -0.54377
O          O       0.56868   0.65320   0.07244  -0.62189

