data_crystal

_audit_creation_method 'AiiDA-DDEC plugin'

_cell_length_a        10.42511
_cell_length_b        12.28249
_cell_length_c        12.62955

_cell_angle_alpha     85.07114
_cell_angle_beta     79.08818
_cell_angle_gamma     76.06141

_symmetry_space_group_name_Hall 'P 1'
_symmetry_space_group_name_H-M  'P 1'

loop_
_symmetry_equiv_pos_as_xyz
 'x,y,z'

loop_
_atom_site_label
_atom_site_type_symbol
_atom_site_fract_x
_atom_site_fract_y
_atom_site_fract_z
_atom_site_charge
La         La      0.98575   0.13584   0.82561   2.01524
La         La      0.01425   0.86416   0.17440   2.01529
Zn         Zn      0.18329   0.34754   0.19910   0.73329
Zn         Zn      0.81670   0.65247   0.80091   0.73329
H          H       0.32251   0.70764   0.99710   0.13060
H          H       0.23841   0.54318   0.33366   0.10567
H          H       0.33971   0.37906   0.90210   0.12216
H          H       0.10195   0.68523   0.77747   0.11725
H          H       0.56590   0.60565   0.94258   0.09820
H          H       0.32819   0.57208   0.81576   0.12268
H          H       0.14602   0.42993   0.66643   0.09816
H          H       0.22590   0.57125   0.53035   0.12917
H          H       0.39072   0.95194   0.73876   0.14690
H          H       0.63493   0.84815   0.70503   0.10761
H          H       0.67749   0.29237   0.00291   0.13061
H          H       0.76158   0.45682   0.66634   0.10566
H          H       0.66029   0.62094   0.09790   0.12222
H          H       0.89805   0.31477   0.22253   0.11721
H          H       0.43410   0.39436   0.05742   0.09829
H          H       0.67181   0.42793   0.18425   0.12261
H          H       0.85398   0.57008   0.33357   0.09806
H          H       0.77410   0.42875   0.46966   0.12901
H          H       0.60928   0.04807   0.26124   0.14687
H          H       0.36507   0.15186   0.29497   0.10762
C          C       0.01251   0.45096   0.87444   0.04819
C          C       0.13215   0.38391   0.90287  -0.07555
C          C       0.87927   0.41681   0.88735   0.56525
C          C       0.15304   0.26757   0.95798   0.61636
C          C       0.12430   0.32149   0.43387   0.06789
C          C       0.08615   0.22509   0.38906   0.50844
C          C       0.38940   0.74025   0.93165  -0.15480
C          C       0.20600   0.48391   0.39580   0.09383
C          C       0.34070   0.83912   0.87358   0.01638
C          C       0.24634   0.42946   0.88079  -0.05208
C          C       0.11668   0.59940   0.81154   0.09558
C          C       0.11210   0.33144   0.54498  -0.04391
C          C       0.19874   0.90472   0.90612   0.64382
C          C       0.52301   0.68456   0.90278   0.07333
C          C       0.24006   0.53659   0.83344  -0.10803
C          C       0.15150   0.42129   0.58058  -0.05793
C          C       0.19763   0.49908   0.50527  -0.12373
C          C       0.06228   0.24802   0.62681   0.58964
C          C       0.42717   0.87721   0.78737  -0.13393
C          C       0.56136   0.81915   0.76719   0.08981
C          C       0.98749   0.54904   0.12557   0.04831
C          C       0.86785   0.61609   0.09714  -0.07539
C          C       0.12073   0.58319   0.11265   0.56524
C          C       0.84696   0.73244   0.04202   0.61599
C          C       0.87569   0.67851   0.56614   0.06787
C          C       0.91385   0.77492   0.61094   0.50838
C          C       0.61060   0.25976   0.06835  -0.15492
C          C       0.79400   0.51610   0.60421   0.09374
C          C       0.65930   0.16088   0.12642   0.01631
C          C       0.75366   0.57054   0.11921  -0.05209
C          C       0.88332   0.40061   0.18847   0.09550
C          C       0.88789   0.66857   0.45503  -0.04410
C          C       0.80126   0.09529   0.09388   0.64398
C          C       0.47698   0.31544   0.09722   0.07341
C          C       0.75994   0.46341   0.16656  -0.10798
C          C       0.84849   0.57872   0.41942  -0.05789
C          C       0.80237   0.50093   0.49473  -0.12382
C          C       0.93772   0.75198   0.37320   0.58992
C          C       0.57282   0.12279   0.21264  -0.13408
C          C       0.43864   0.18085   0.23281   0.08990
N          N       0.17110   0.39634   0.36166  -0.26072
N          N       0.60876   0.72473   0.82411  -0.19969
N          N       0.00744   0.55648   0.83171  -0.23144
N          N       0.82889   0.60367   0.63834  -0.26046
N          N       0.39123   0.27528   0.17590  -0.19956
N          N       0.99255   0.44352   0.16830  -0.23160
O          O       0.15152   0.90975   0.00653  -0.66864
O          O       0.18857   0.25571   0.04798  -0.49484
O          O       0.03779   0.15857   0.45508  -0.48263
O          O       0.93755   0.26971   0.67171  -0.64291
O          O       0.14910   0.16754   0.66090  -0.60832
O          O       0.77726   0.49253   0.87341  -0.51885
O          O       0.10913   0.22112   0.28464  -0.56479
O          O       0.14486   0.18567   0.90439  -0.65082
O          O       0.13642   0.95204   0.83105  -0.62182
O          O       0.87719   0.31401   0.91099  -0.64015
O          O       0.84847   0.09025   0.99347  -0.66887
O          O       0.81143   0.74429   0.95203  -0.49476
O          O       0.96221   0.84144   0.54493  -0.48255
O          O       0.06245   0.73030   0.32830  -0.64312
O          O       0.85089   0.83246   0.33911  -0.60826
O          O       0.22274   0.50748   0.12659  -0.51894
O          O       0.89087   0.77889   0.71536  -0.56451
O          O       0.85513   0.81433   0.09561  -0.65043
O          O       0.86358   0.04796   0.16896  -0.62174
O          O       0.12280   0.68599   0.08901  -0.64007

