data_crystal

_audit_creation_method 'AiiDA-DDEC plugin'

_cell_length_a        12.13166
_cell_length_b         8.88273
_cell_length_c        14.22420

_cell_angle_alpha     109.40875
_cell_angle_beta     107.31652
_cell_angle_gamma     88.95510

_symmetry_space_group_name_Hall 'P 1'
_symmetry_space_group_name_H-M  'P 1'

loop_
_symmetry_equiv_pos_as_xyz
 'x,y,z'

loop_
_atom_site_label
_atom_site_type_symbol
_atom_site_fract_x
_atom_site_fract_y
_atom_site_fract_z
_atom_site_charge
Mn         Mn      0.88258   0.07597   0.01469   1.24589
Mn         Mn      0.61294   0.06185   0.98176   1.24691
Mn         Mn      0.11681   0.92350   0.98508   1.24842
Mn         Mn      0.38670   0.93866   0.01803   1.24689
H          H       0.01941   0.91007   0.77664   0.13852
H          H       0.96724   0.59054   0.27404   0.15805
H          H       0.47807   0.13765   0.22954   0.14009
H          H       0.52409   0.31859   0.72575   0.15520
H          H       0.98005   0.08974   0.22319   0.13825
H          H       0.03331   0.40967   0.72592   0.15809
H          H       0.52109   0.86295   0.77101   0.13955
H          H       0.47704   0.68162   0.27537   0.15508
C          C       0.86343   0.76230   0.84755   0.59035
C          C       0.87193   0.74739   0.74424  -0.14517
C          C       0.95157   0.82202   0.71773  -0.14689
C          C       0.84275   0.64207   0.55461  -0.06747
C          C       0.93579   0.76265   0.60894  -0.00984
C          C       0.82990   0.57434   0.44693  -0.07637
C          C       0.91591   0.63932   0.41946  -0.00885
C          C       0.91077   0.56202   0.31345  -0.13538
C          C       0.82253   0.43949   0.26294  -0.11979
C          C       0.78880   0.31786   0.15861   0.60526
C          C       0.64521   0.92807   0.15468   0.57989
C          C       0.62904   0.00598   0.25747  -0.14141
C          C       0.54651   0.10514   0.28632  -0.15070
C          C       0.65806   0.08692   0.44807  -0.06353
C          C       0.56283   0.15257   0.39487  -0.01135
C          C       0.66791   0.12631   0.55525  -0.07561
C          C       0.57860   0.21783   0.58253  -0.00764
C          C       0.58227   0.24730   0.68764  -0.13895
C          C       0.67278   0.17688   0.73825  -0.11486
C          C       0.70766   0.16448   0.84308   0.60829
C          C       0.13484   0.23712   0.15202   0.58808
C          C       0.12783   0.25192   0.25572  -0.14695
C          C       0.04796   0.17757   0.28218  -0.14597
C          C       0.15726   0.35726   0.44504  -0.06695
C          C       0.06395   0.23711   0.39097  -0.00977
C          C       0.17026   0.42497   0.55264  -0.07712
C          C       0.08413   0.36049   0.58025  -0.00882
C          C       0.08963   0.43788   0.68629  -0.13553
C          C       0.17811   0.56021   0.73665  -0.12006
C          C       0.21139   0.68228   0.84104   0.60411
C          C       0.35497   0.07352   0.84541   0.58105
C          C       0.37044   0.99444   0.74251  -0.14174
C          C       0.45289   0.89518   0.71391  -0.14954
C          C       0.34189   0.91331   0.55210  -0.06384
C          C       0.43689   0.84749   0.60544  -0.01111
C          C       0.33230   0.87378   0.44496  -0.07587
C          C       0.42162   0.78217   0.41789  -0.00845
C          C       0.41839   0.75287   0.31284  -0.13828
C          C       0.32804   0.82308   0.26199  -0.11420
C          C       0.29285   0.83554   0.15738   0.60867
S          S       0.77732   0.60066   0.63586   0.16704
S          S       0.74212   0.42214   0.34298   0.16949
S          S       0.01036   0.78915   0.52627   0.09695
S          S       0.72702   0.96800   0.36422   0.16267
S          S       0.75582   0.07820   0.65856   0.16977
S          S       0.48510   0.26217   0.47684   0.09324
S          S       0.22285   0.39826   0.36383   0.16904
S          S       0.25838   0.57699   0.65636   0.17025
S          S       0.98933   0.21107   0.47348   0.09767
S          S       0.27288   0.03266   0.63575   0.16331
S          S       0.24471   0.92182   0.34147   0.16955
S          S       0.51462   0.73743   0.52366   0.09315
O          O       0.68614   0.25178   0.12421  -0.53582
O          O       0.86815   0.28105   0.11230  -0.52965
O          O       0.79249   0.68386   0.86030  -0.40705
O          O       0.94019   0.88179   0.92893  -0.61526
O          O       0.81214   0.13719   0.87826  -0.52865
O          O       0.62876   0.17539   0.88960  -0.53593
O          O       0.72679   0.84802   0.14455  -0.41680
O          O       0.56322   0.95360   0.07005  -0.61306
O          O       0.31409   0.74815   0.87572  -0.53433
O          O       0.13116   0.71902   0.88640  -0.52948
O          O       0.20350   0.31839   0.13788  -0.41053
O          O       0.05918   0.11706   0.07091  -0.61368
O          O       0.18834   0.86237   0.12213  -0.52992
O          O       0.37133   0.82511   0.11038  -0.53720
O          O       0.27339   0.15343   0.85548  -0.41708
O          O       0.43648   0.04739   0.92991  -0.61399
O          O       0.74652   0.97503   0.98983  -0.73098
O          O       0.25278   0.02485   0.00981  -0.73138

