data_crystal

_audit_creation_method 'AiiDA-DDEC plugin'

_cell_length_a         8.20172
_cell_length_b         9.87719
_cell_length_c        18.27825

_cell_angle_alpha     89.90570
_cell_angle_beta     90.01075
_cell_angle_gamma     110.68253

_symmetry_space_group_name_Hall 'P 1'
_symmetry_space_group_name_H-M  'P 1'

loop_
_symmetry_equiv_pos_as_xyz
 'x,y,z'

loop_
_atom_site_label
_atom_site_type_symbol
_atom_site_fract_x
_atom_site_fract_y
_atom_site_fract_z
_atom_site_charge
Tb         Tb      0.84221   0.03263   0.23586   2.07078
Tb         Tb      0.15506   0.46662   0.73670   2.07112
Tb         Tb      0.15478   0.96677   0.76124   2.07236
Tb         Tb      0.84328   0.53154   0.26126   2.06971
H          H       0.87775   0.08086   0.97766   0.15096
H          H       0.28115   0.16774   0.31088   0.14791
H          H       0.39064   0.90707   0.27272   0.13789
H          H       0.11913   0.41937   0.47767   0.15076
H          H       0.71516   0.33058   0.81083   0.14778
H          H       0.60722   0.59333   0.77448   0.13770
H          H       0.12227   0.91576   0.02002   0.15095
H          H       0.71545   0.83367   0.68824   0.14698
H          H       0.60493   0.09399   0.72663   0.13581
H          H       0.87772   0.58678   0.52000   0.15055
H          H       0.28297   0.66641   0.18832   0.14719
H          H       0.39400   0.40609   0.22659   0.13688
C          C       0.90671   0.02384   0.09183   0.60484
C          C       0.94433   0.02759   0.01266  -0.14464
C          C       0.55524   0.19290   0.29122   0.70991
C          C       0.36679   0.10754   0.29984  -0.16403
C          C       0.30341   0.96441   0.28678  -0.16521
C          C       0.11476   0.87680   0.28462   0.70564
C          C       0.09583   0.47892   0.59196   0.60534
C          C       0.05502   0.47400   0.51296  -0.14526
C          C       0.44102   0.30775   0.79260   0.71005
C          C       0.63021   0.39183   0.80049  -0.16496
C          C       0.69419   0.53523   0.78776  -0.16547
C          C       0.88291   0.62266   0.78505   0.70512
C          C       0.09436   0.97448   0.90561   0.60797
C          C       0.05635   0.96934   0.98486  -0.14676
C          C       0.44088   0.80617   0.70740   0.70691
C          C       0.62915   0.89322   0.69957  -0.16104
C          C       0.69188   0.03633   0.71272  -0.16676
C          C       0.88063   0.12339   0.71457   0.70742
C          C       0.90261   0.52447   0.40600   0.60736
C          C       0.94236   0.53180   0.48518  -0.14628
C          C       0.55754   0.69304   0.20721   0.70928
C          C       0.36930   0.60674   0.19942  -0.16300
C          C       0.30684   0.46360   0.21270  -0.16582
C          C       0.11825   0.37640   0.21479   0.70526
O          O       0.97655   0.96062   0.13695  -0.64721
O          O       0.80268   0.08674   0.11481  -0.63885
O          O       0.66598   0.12831   0.29245  -0.72023
O          O       0.59654   0.32863   0.28123  -0.66892
O          O       0.00088   0.93290   0.30223  -0.70399
O          O       0.07655   0.74628   0.26348  -0.67320
O          O       0.03051   0.54559   0.63704  -0.64984
O          O       0.19677   0.41311   0.61495  -0.63771
O          O       0.33169   0.37349   0.79568  -0.71547
O          O       0.39745   0.17226   0.78134  -0.67397
O          O      -0.00336   0.56659   0.80315  -0.70406
O          O       0.92137   0.75286   0.76315  -0.67183
O          O       0.02467   0.03920   0.86123  -0.64917
O          O       0.19766   0.91182   0.88167  -0.63703
O          O       0.32784   0.86829   0.70396  -0.71767
O          O       0.40215   0.67114   0.71871  -0.66592
O          O       0.99316   0.06654   0.69624  -0.70693
O          O       0.92094   0.25375   0.73632  -0.67634
O          O       0.97032   0.45758   0.36213  -0.64945
O          O       0.80050   0.58783   0.38159  -0.63665
O          O       0.66984   0.63022   0.20390  -0.71768
O          O       0.59682   0.82809   0.21853  -0.66844
O          O       0.00566   0.43335   0.19629  -0.70888
O          O       0.07831   0.24605   0.23653  -0.67175

