data_crystal

_audit_creation_method 'AiiDA-DDEC plugin'

_cell_length_a        10.63993
_cell_length_b        10.63990
_cell_length_c        16.03267

_cell_angle_alpha     90.00000
_cell_angle_beta     90.00000
_cell_angle_gamma     106.30563

_symmetry_space_group_name_Hall 'P 1'
_symmetry_space_group_name_H-M  'P 1'

loop_
_symmetry_equiv_pos_as_xyz
 'x,y,z'

loop_
_atom_site_label
_atom_site_type_symbol
_atom_site_fract_x
_atom_site_fract_y
_atom_site_fract_z
_atom_site_charge
Zn         Zn      0.23519   0.12366   0.08214   0.98050
Zn         Zn      0.22032   0.40908   0.05622   0.98639
Zn         Zn      0.76481   0.87634   0.58214   0.98046
Zn         Zn      0.77968   0.59092   0.55622   0.98642
Zn         Zn      0.87635   0.76481   0.41785   0.98054
Zn         Zn      0.59092   0.77968   0.44378   0.98641
Zn         Zn      0.12366   0.23519   0.91785   0.98041
Zn         Zn      0.40908   0.22032   0.94377   0.98634
H          H       0.07441   0.51414   0.28902   0.13765
H          H       0.82238   0.24649   0.46080   0.13631
H          H       0.07905   0.11074   0.29886   0.13475
H          H       0.92559   0.48585   0.78902   0.13772
H          H       0.17762   0.75350   0.96080   0.13628
H          H       0.92096   0.88926   0.79886   0.13476
H          H       0.48585   0.92559   0.21098   0.13769
H          H       0.75350   0.17761   0.03920   0.13637
H          H       0.88927   0.92095   0.20114   0.13484
H          H       0.51415   0.07441   0.71097   0.13770
H          H       0.24650   0.82238   0.53919   0.13642
H          H       0.11074   0.07904   0.70114   0.13473
C          C       0.08757   0.31438   0.28696  -0.04488
C          C       0.04003   0.41686   0.31623  -0.07516
C          C       0.94687   0.39302   0.38051  -0.05412
C          C       0.89740   0.26611   0.41275  -0.07185
C          C       0.94427   0.16429   0.38352  -0.04151
C          C       0.04151   0.18929   0.32186  -0.07651
C          C       0.17675   0.33135   0.21314   0.58560
C          C       0.89857   0.50032   0.41610   0.60400
C          C       0.88960   0.02821   0.41616   0.59381
C          C       0.91243   0.68561   0.78696  -0.04487
C          C       0.95998   0.58314   0.81623  -0.07512
C          C       0.05313   0.60698   0.88050  -0.05414
C          C       0.10261   0.73388   0.91274  -0.07165
C          C       0.05573   0.83570   0.88352  -0.04175
C          C       0.95849   0.81071   0.82186  -0.07658
C          C       0.82325   0.66865   0.71314   0.58565
C          C       0.10143   0.49967   0.91610   0.60388
C          C       0.11040   0.97179   0.91616   0.59407
C          C       0.68561   0.91243   0.21304  -0.04478
C          C       0.58314   0.95997   0.18376  -0.07528
C          C       0.60697   0.05312   0.11949  -0.05414
C          C       0.73389   0.10261   0.08725  -0.07178
C          C       0.83571   0.05573   0.11648  -0.04164
C          C       0.81071   0.95849   0.17814  -0.07671
C          C       0.66865   0.82325   0.28685   0.58567
C          C       0.49969   0.10143   0.08389   0.60382
C          C       0.97179   0.11041   0.08383   0.59392
C          C       0.31439   0.08757   0.71304  -0.04469
C          C       0.41686   0.04002   0.68376  -0.07539
C          C       0.39303   0.94687   0.61949  -0.05398
C          C       0.26611   0.89739   0.58725  -0.07177
C          C       0.16429   0.94427   0.61648  -0.04152
C          C       0.18929   0.04151   0.67814  -0.07679
C          C       0.33135   0.17675   0.78685   0.58581
C          C       0.50031   0.89856   0.58389   0.60360
C          C       0.02821   0.88959   0.58383   0.59367
O          O       0.23012   0.24366   0.19357  -0.55587
O          O       0.18787   0.43794   0.17010  -0.54444
O          O       0.93702   0.61380   0.38324  -0.51192
O          O       0.82100   0.46852   0.47905  -0.54590
O          O       0.95736   0.94930   0.39733  -0.53333
O          O       0.78306  -0.00107   0.45754  -0.59605
O          O       0.76989   0.75634   0.69357  -0.55605
O          O       0.81213   0.56206   0.67010  -0.54432
O          O       0.06298   0.38619   0.88324  -0.51175
O          O       0.17900   0.53147   0.97905  -0.54596
O          O       0.04264   0.05069   0.89733  -0.53346
O          O       0.21694   0.00107   0.95754  -0.59614
O          O       0.75634   0.76988   0.30642  -0.55582
O          O       0.56205   0.81212   0.32990  -0.54452
O          O       0.38619   0.06297   0.11676  -0.51206
O          O       0.53147   0.17900   0.02094  -0.54566
O          O       0.05069   0.04263   0.10266  -0.53349
O          O       0.00107   0.21694   0.04246  -0.59588
O          O       0.24366   0.23011   0.80642  -0.55601
O          O       0.43795   0.18787   0.82990  -0.54450
O          O       0.61381   0.93702   0.61676  -0.51206
O          O       0.46853   0.82100   0.52094  -0.54544
O          O       0.94931   0.95736   0.60266  -0.53355
O          O      -0.00107   0.78305   0.54246  -0.59555
O          O       0.27622   0.27622   0.00000  -1.01494
O          O       0.72378   0.72378   0.50000  -1.01491

