data_crystal

_audit_creation_method 'AiiDA-DDEC plugin'

_cell_length_a        12.23387
_cell_length_b        14.11393
_cell_length_c        14.89405

_cell_angle_alpha     96.22653
_cell_angle_beta     113.40485
_cell_angle_gamma     108.72568

_symmetry_space_group_name_Hall 'P 1'
_symmetry_space_group_name_H-M  'P 1'

loop_
_symmetry_equiv_pos_as_xyz
 'x,y,z'

loop_
_atom_site_label
_atom_site_type_symbol
_atom_site_fract_x
_atom_site_fract_y
_atom_site_fract_z
_atom_site_charge
Ca         Ca      0.69246   0.59077   0.57981   1.40287
Ca         Ca      0.46378   0.93106   0.12558   1.40347
Ca         Ca      0.30754   0.40923   0.42019   1.40293
Ca         Ca      0.53621   0.06894   0.87441   1.40344
Ca         Ca     -0.00000   0.00000   0.50000   1.58386
Ca         Ca      0.00000   0.50000   0.00000   1.58460
H          H       0.95511   0.79072   0.60584   0.08822
H          H       0.51340   0.59353   0.37408   0.10265
H          H       0.92304   0.63336   0.81936   0.08843
H          H       0.26661   0.91125   0.91157   0.10741
H          H       0.68476   0.88317   0.31566   0.08698
H          H       0.28661   0.71236   0.15035   0.08786
H          H       0.58363   0.80117   0.78705   0.13277
H          H       0.30533   0.65193   0.88898   0.08815
H          H       0.31583   0.47937   0.65115   0.08766
H          H       0.04489   0.20928   0.39415   0.08815
H          H       0.48660   0.40648   0.62592   0.10263
H          H       0.07696   0.36664   0.18063   0.08842
H          H       0.73338   0.08875   0.08843   0.10749
H          H       0.31523   0.11683   0.68434   0.08697
H          H       0.71338   0.28764   0.84964   0.08776
H          H       0.41637   0.19883   0.21295   0.13275
H          H       0.69466   0.34807   0.11102   0.08813
H          H       0.68416   0.52063   0.34885   0.08725
C          C       0.12125   0.86100   0.75474  -0.09497
C          C       0.10138   0.77034   0.87944  -0.09768
C          C      -0.00150   0.78695   0.68405   0.08204
C          C       0.38542   0.64192   0.26001  -0.09662
C          C       0.50621   0.65295   0.33403  -0.05717
C          C       0.61662   0.73984   0.35473  -0.09763
C          C       0.98022   0.69923   0.80296   0.08953
C          C       0.17268   0.85313   0.85456  -0.05004
C          C       0.74828   0.75474   0.43425   0.64935
C          C       0.51838   0.63027   0.64221   0.59339
C          C       0.44912   0.73920   0.84700  -0.09677
C          C       0.45625   0.63956   0.70931  -0.09528
C          C       0.60127   0.81380   0.30100   0.08916
C          C       0.37919   0.71872   0.20889   0.08895
C          C       0.19478   0.94403   0.72045   0.65484
C          C       0.49347   0.83906   0.92342   0.62889
C          C       0.26407   0.55172   0.23844   0.65796
C          C       0.15095   0.75586   0.98499   0.64701
C          C       0.50416   0.73369   0.78161  -0.06238
C          C       0.34885   0.64894   0.83805   0.08444
C          C       0.35449   0.55425   0.70588   0.07788
C          C       0.87875   0.13900   0.24525  -0.09485
C          C       0.89861   0.22966   0.12056  -0.09770
C          C       0.00149   0.21305   0.31595   0.08189
C          C       0.61458   0.35808   0.73998  -0.09680
C          C       0.49378   0.34705   0.66597  -0.05686
C          C       0.38337   0.26016   0.64526  -0.09764
C          C       0.01978   0.30077   0.19703   0.08971
C          C       0.82731   0.14687   0.14543  -0.05004
C          C       0.25172   0.24526   0.56574   0.64928
C          C       0.48161   0.36973   0.35779   0.59308
C          C       0.55087   0.26080   0.15300  -0.09670
C          C       0.54375   0.36044   0.29068  -0.09523
C          C       0.39872   0.18620   0.69899   0.08928
C          C       0.62081   0.28128   0.79110   0.08893
C          C       0.80521   0.05597   0.27955   0.65481
C          C       0.50653   0.16094   0.07658   0.62888
C          C       0.73593   0.44828   0.76155   0.65812
C          C       0.84905   0.24414   0.01501   0.64687
C          C       0.49583   0.26631   0.21838  -0.06245
C          C       0.65115   0.35106   0.16195   0.08434
C          C       0.64551   0.44575   0.29411   0.07853
N          N       0.92820   0.70722   0.70697  -0.31344
N          N       0.48481   0.80412   0.22953  -0.32195
N          N       0.30124   0.55775   0.76916  -0.27670
N          N       0.07180   0.29278   0.29302  -0.31357
N          N       0.51519   0.19588   0.77047  -0.32207
N          N       0.69875   0.44225   0.23083  -0.27669
O          O       0.24457   0.83232   0.05702  -0.62164
O          O       0.75561   0.68278   0.47764  -0.62290
O          O       0.46025   0.55041   0.56409  -0.70804
O          O       0.31756   0.98485   0.77089  -0.63750
O          O       0.12934   0.96731   0.64140  -0.70738
O          O       0.16348   0.52903   0.15409  -0.70098
O          O       0.26913   0.50411   0.30629  -0.63004
O          O       0.84494   0.83843   0.45416  -0.69931
O          O       0.09529   0.66695   0.99555  -0.70504
O          O       0.55983   0.92334   0.91262  -0.65974
O          O       0.62988   0.69836   0.66617  -0.59534
O          O       0.46065   0.83342   0.99439  -0.65561
O          O       0.75542   0.16768   0.94298  -0.62149
O          O       0.24439   0.31722   0.52235  -0.62289
O          O       0.53974   0.44960   0.43591  -0.70800
O          O       0.68243   0.01515   0.22911  -0.63739
O          O       0.87066   0.03269   0.35860  -0.70755
O          O       0.83651   0.47097   0.84591  -0.70130
O          O       0.73086   0.49589   0.69370  -0.62994
O          O       0.15506   0.16157   0.54584  -0.69924
O          O       0.90471   0.33305   0.00445  -0.70496
O          O       0.44017   0.07666   0.08738  -0.65976
O          O       0.37011   0.30164   0.33383  -0.59517
O          O       0.53935   0.16658   0.00561  -0.65555

