data_crystal

_audit_creation_method 'AiiDA-DDEC plugin'

_cell_length_a         7.45200
_cell_length_b         9.57765
_cell_length_c        11.35942

_cell_angle_alpha     97.94677
_cell_angle_beta     89.98751
_cell_angle_gamma     112.92852

_symmetry_space_group_name_Hall 'P 1'
_symmetry_space_group_name_H-M  'P 1'

loop_
_symmetry_equiv_pos_as_xyz
 'x,y,z'

loop_
_atom_site_label
_atom_site_type_symbol
_atom_site_fract_x
_atom_site_fract_y
_atom_site_fract_z
_atom_site_charge
Co         Co      0.59242   0.49628   0.50255   0.98841
Co         Co      0.09616   0.50365   0.49722   0.98874
H          H       0.88050   0.07001   0.39658   0.35083
H          H       0.38313   0.27074   0.27544   0.09778
H          H       0.37640   0.26345   0.05482   0.11855
H          H       0.80377   0.73002   0.11410   0.12141
H          H       0.78713   0.71933   0.33034   0.10372
H          H       0.55488   0.69971   0.71834   0.10569
H          H       0.56078   0.71236   0.94082   0.11379
H          H       0.62660   0.28035   0.89000   0.11410
H          H       0.63467   0.29384   0.67087   0.11225
H          H       0.20006   0.98912   0.38865   0.08017
H          H       0.81144   0.92914   0.60442   0.35054
H          H       0.11212   0.72896   0.72453   0.09707
H          H       0.11278   0.73616   0.94509   0.11861
H          H       0.07341   0.26987   0.88573   0.12116
H          H       0.06740   0.28046   0.66954   0.10418
H          H       0.85498   0.29956   0.28159   0.10549
H          H       0.84780   0.28724   0.05917   0.11360
H          H       0.34648   0.71918   0.10993   0.11425
H          H       0.34113   0.70553   0.32901   0.11227
H          H       0.21200   0.01052   0.61053   0.07944
C          C       0.47442   0.36950   0.23548   0.09808
C          C       0.47297   0.36592   0.11263  -0.19431
C          C       0.59218   0.49599   0.06451   0.09312
C          C       0.70748   0.62496   0.14494  -0.18197
C          C       0.70169   0.61907   0.26675   0.09906
C          C       0.57503   0.61197   0.76163   0.09748
C          C       0.57750   0.61711   0.88461  -0.18868
C          C       0.59391   0.49651   0.93462   0.08766
C          C       0.61106   0.37620   0.85632  -0.18627
C          C       0.61511   0.38207   0.73457   0.10063
C          C       0.19929   0.20919   0.46397   0.55491
C          C       0.10261   0.03261   0.43989   0.03543
C          C       0.10467   0.63018   0.76439   0.09796
C          C       0.10682   0.63375   0.88726  -0.19484
C          C       0.09586   0.50373   0.93541   0.09329
C          C       0.08218   0.37487   0.85491  -0.18143
C          C       0.08227   0.38073   0.73310   0.09858
C          C       0.96299   0.38735   0.23828   0.09837
C          C       0.96005   0.38240   0.11531  -0.18864
C          C       0.09721   0.50308   0.06531   0.08765
C          C       0.23495   0.62327   0.14358  -0.18602
C          C       0.23331   0.61728   0.26531   0.10115
C          C       0.99014   0.79078   0.53502   0.55377
C          C       0.07061   0.96736   0.55971   0.03839
N          N       0.59616   0.49757   0.68745  -0.24004
N          N       0.58782   0.49318   0.31248  -0.24636
N          N       0.09878   0.50166   0.31238  -0.24000
N          N       0.09431   0.50657   0.68733  -0.24650
O          O       0.38294   0.26873   0.48394  -0.57812
O          O       0.08089   0.27512   0.46105  -0.57982
O          O       0.92193   0.98502   0.37222  -0.49900
O          O       0.11330   0.73083   0.51276  -0.57845
O          O       0.80592   0.72524   0.53946  -0.57957
O          O       0.93787   0.01468   0.62798  -0.50081
F          F       0.80049   0.40918   0.48828  -0.57826
F          F       0.39170   0.59066   0.51164  -0.57849

