data_crystal

_audit_creation_method 'AiiDA-DDEC plugin'

_cell_length_a        10.01994
_cell_length_b        10.93214
_cell_length_c        13.06825

_cell_angle_alpha     98.64958
_cell_angle_beta     108.84496
_cell_angle_gamma     109.32236

_symmetry_space_group_name_Hall 'P 1'
_symmetry_space_group_name_H-M  'P 1'

loop_
_symmetry_equiv_pos_as_xyz
 'x,y,z'

loop_
_atom_site_label
_atom_site_type_symbol
_atom_site_fract_x
_atom_site_fract_y
_atom_site_fract_z
_atom_site_charge
Er         Er      0.15351   0.70593   0.19484   1.92234
Er         Er      0.84651   0.29409   0.80516   1.92231
H          H       0.73627   0.62445   0.17723   0.11910
H          H       0.51413   0.35950   0.83822   0.12306
H          H       0.83564   0.92162   0.29432   0.11950
H          H       0.22930   0.94534   0.57006   0.11320
H          H       0.21362   0.40392   0.42690   0.12247
H          H       0.63480   0.68435   0.43170   0.11702
H          H       0.95240   0.62701   0.91426   0.09155
H          H       0.88630   0.73073   0.75999   0.12053
H          H       0.01790   0.98556   0.80130   0.12392
H          H       0.21648   0.20580   0.93881   0.12183
H          H       0.41864   0.33553   0.13051   0.10992
H          H       0.57068   0.33748   0.32869   0.11804
H          H       0.62848   0.20309   0.46494   0.13694
H          H       0.47349   0.95267   0.40241   0.09721
H          H       0.26374   0.37555   0.82275   0.11893
H          H       0.48588   0.64050   0.16176   0.12308
H          H       0.16437   0.07837   0.70568   0.11949
H          H       0.77071   0.05465   0.42993   0.11331
H          H       0.78639   0.59609   0.57310   0.12252
H          H       0.36521   0.31567   0.56830   0.11691
H          H       0.04761   0.37299   0.08572   0.09150
H          H       0.11370   0.26929   0.23999   0.12062
H          H       0.98210   0.01446   0.19870   0.12395
H          H       0.78352   0.79421   0.06119   0.12194
H          H       0.58135   0.66447   0.86949   0.10990
H          H       0.42931   0.66253   0.67130   0.11799
H          H       0.37152   0.79692   0.53505   0.13689
H          H       0.52653   0.04734   0.59758   0.09712
C          C       0.78780   0.48269   0.01596   0.66061
C          C       0.63873   0.49011   0.00891  -0.04145
C          C       0.63201   0.56990   0.10044  -0.09488
C          C       0.50612   0.42010   0.90842  -0.09654
C          C       0.07809   0.85006   0.34339   0.55798
C          C       0.03718   0.92662   0.42418  -0.02343
C          C       0.90724   0.95679   0.38435  -0.10103
C          C       0.12937   0.96975   0.54032  -0.09367
C          C       0.32478   0.59971   0.33555   0.56318
C          C       0.41531   0.54777   0.41987  -0.02183
C          C       0.33893   0.44434   0.45883  -0.10733
C          C       0.57710   0.60348   0.46189  -0.10352
C          C       0.00903   0.73579   0.93014   0.13386
C          C       0.97289   0.79555   0.84273  -0.11753
C          C       0.04628   0.93389   0.86493  -0.07559
C          C       0.16029   0.01192   0.97408   0.04747
C          C       0.24431   0.15530   0.00326  -0.11872
C          C       0.35541   0.22658   0.10930  -0.12785
C          C       0.39130   0.15977   0.19419   0.04426
C          C       0.50698   0.22808   0.30440  -0.06553
C          C       0.53825   0.15512   0.38016  -0.13385
C          C       0.45195   0.01433   0.34610   0.12236
C          C       0.30894   0.01745   0.16789   0.12902
C          C       0.19065   0.94307   0.05681   0.12599
C          C       0.21221   0.51731   0.98403   0.66090
C          C       0.36127   0.50989   0.99107  -0.04123
C          C       0.36800   0.43010   0.89954  -0.09488
C          C       0.49389   0.57990   0.09156  -0.09662
C          C       0.92191   0.14994   0.65660   0.55762
C          C       0.96282   0.07336   0.57582  -0.02330
C          C       0.09276   0.04320   0.61564  -0.10100
C          C       0.87064   0.03024   0.45967  -0.09383
C          C       0.67522   0.40028   0.66443   0.56320
C          C       0.58470   0.45224   0.58013  -0.02181
C          C       0.66108   0.55566   0.54116  -0.10732
C          C       0.42291   0.39652   0.53811  -0.10343
C          C       0.99097   0.26422   0.06984   0.13373
C          C       0.02711   0.20447   0.15726  -0.11745
C          C       0.95374   0.06613   0.13507  -0.07571
C          C       0.83972   0.98810   0.02592   0.04770
C          C       0.75570   0.84471   0.99673  -0.11876
C          C       0.64459   0.77342   0.89069  -0.12799
C          C       0.60870   0.84025   0.80580   0.04405
C          C       0.49302   0.77193   0.69559  -0.06562
C          C       0.46175   0.84489   0.61983  -0.13375
C          C       0.54806   0.98568   0.65389   0.12234
C          C       0.69106   0.98257   0.83209   0.12934
C          C       0.80936   0.05695   0.94318   0.12544
N          N       0.11277   0.80706   0.03488  -0.38385
N          N       0.33914   0.94679   0.24363  -0.37629
N          N       0.88724   0.19295   0.96510  -0.38346
N          N       0.66087   0.05323   0.75636  -0.37602
O          O       0.90751   0.55173   0.10651  -0.66721
O          O       0.78710   0.40970   0.93033  -0.67881
O          O       0.01371   0.83513   0.23740  -0.63445
O          O       0.17765   0.80096   0.38007  -0.62525
O          O       0.17868   0.53321   0.28333  -0.61993
O          O       0.39441   0.71085   0.31798  -0.63281
O          O       0.09250   0.44827   0.89350  -0.66742
O          O       0.21293   0.59030   0.06968  -0.67897
O          O       0.98630   0.16488   0.76259  -0.63419
O          O       0.82232   0.19901   0.61991  -0.62523
O          O       0.82133   0.46679   0.71666  -0.61996
O          O       0.60560   0.28917   0.68202  -0.63283

