data_crystal

_audit_creation_method 'AiiDA-DDEC plugin'

_cell_length_a        11.23525
_cell_length_b        11.80545
_cell_length_c        13.05244

_cell_angle_alpha     85.27824
_cell_angle_beta     68.24930
_cell_angle_gamma     67.35185

_symmetry_space_group_name_Hall 'P 1'
_symmetry_space_group_name_H-M  'P 1'

loop_
_symmetry_equiv_pos_as_xyz
 'x,y,z'

loop_
_atom_site_label
_atom_site_type_symbol
_atom_site_fract_x
_atom_site_fract_y
_atom_site_fract_z
_atom_site_charge
Cd         Cd      0.87582   0.05294   0.16278   1.09161
Cd         Cd      0.24417   0.94684   0.11512   1.05941
Cd         Cd      0.60353   0.85111   0.02528   1.02285
Cd         Cd      0.12417   0.94704   0.83722   1.09151
Cd         Cd      0.75582   0.05317   0.88487   1.05953
Cd         Cd      0.39647   0.14890   0.97470   1.02294
H          H       0.84160   0.04330   0.52805   0.15119
H          H       0.84538   0.30820   0.90397   0.07972
H          H       0.38568   0.51452   0.11520   0.14298
H          H       0.83344   0.32936   0.11560   0.19382
H          H       0.93169   0.39536   0.00775   0.17072
H          H       0.28968   0.07529   0.28339   0.07363
H          H       0.43054   0.16717   0.31103   0.16321
H          H       0.39465   0.22892   0.19277   0.14793
H          H       0.15840   0.95670   0.47195   0.15089
H          H       0.15460   0.69180   0.09603   0.07964
H          H       0.61433   0.48548   0.88479   0.14291
H          H       0.16656   0.67062   0.88440   0.19361
H          H       0.06830   0.60463   0.99226   0.17069
H          H       0.71032   0.92470   0.71661   0.07339
H          H       0.56944   0.83285   0.68898   0.16324
H          H       0.60531   0.77111   0.80725   0.14792
C          C       0.95172   0.01259   0.47750  -0.16376
C          C       0.05510   0.22427   0.06008   0.67225
C          C       0.89602   0.24788   0.95728   0.40606
C          C       0.47800   0.92544   0.26838   0.53125
C          C       0.44741   0.66917   0.04711   0.62847
C          C       0.45729   0.54002   0.04402  -0.18158
C          C       0.98954   0.00086   0.35582   0.63462
C          C       0.60519   0.11254   0.16147   0.66381
C          C       0.92519   0.30736   0.03743  -0.41667
C          C       0.39670   0.04385   0.22268   0.11387
C          C       0.45125   0.14433   0.22459  -0.35914
C          C       0.20927   0.24422   0.75005   0.74963
C          C       0.04828   0.98741   0.52250  -0.16376
C          C       0.94489   0.77571   0.93993   0.67163
C          C       0.10398   0.75212   0.04271   0.40589
C          C       0.52205   0.07458   0.73159   0.53163
C          C       0.55260   0.33083   0.95288   0.62890
C          C       0.54271   0.45999   0.95597  -0.18185
C          C       0.01046  -0.00085   0.64418   0.63475
C          C       0.39478   0.88749   0.83852   0.66318
C          C       0.07481   0.69263   0.96257  -0.41637
C          C       0.60329   0.95617   0.77731   0.11360
C          C       0.54872   0.85570   0.77542  -0.35908
C          C       0.79070   0.75561   0.24999   0.74947
O          O       0.05440   0.12110   0.10173  -0.62820
O          O       0.67780   0.02972   0.08130  -0.64104
O          O       0.56223   0.82806   0.20078  -0.60008
O          O       0.32850   0.74340   0.11137  -0.56898
O          O       0.45912   0.93247   0.36753  -0.50260
O          O       0.11664   0.96615   0.29392  -0.56515
O          O       0.88573   0.02790   0.32566  -0.55676
O          O       0.15283   0.25997   0.03433  -0.51567
O          O       0.19474   0.34820   0.74699  -0.35153
O          O       0.92224   0.13593   0.94969  -0.46976
O          O       0.39596   0.02334   0.11535  -0.66931
O          O       0.21149   0.14324   0.75429  -0.38747
O          O       0.54984   0.69572   0.98631  -0.57009
O          O       0.65988   0.17108   0.19668  -0.54878
O          O       0.94558   0.87889   0.89828  -0.62795
O          O       0.32215   0.97033   0.91869  -0.64040
O          O       0.43780   0.17197   0.79918  -0.60002
O          O       0.67150   0.25661   0.88862  -0.56936
O          O       0.54100   0.06756   0.63243  -0.50282
O          O       0.88336   0.03385   0.70608  -0.56489
O          O       0.11427   0.97212   0.67434  -0.55725
O          O       0.84717   0.74000   0.96567  -0.51523
O          O       0.80485   0.65172   0.25291  -0.35103
O          O       0.07779   0.86407   0.05028  -0.46959
O          O       0.60401   0.97668   0.88465  -0.66931
O          O       0.78906   0.85639   0.24583  -0.38804
O          O       0.45017   0.30428   0.01368  -0.57015
O          O       0.34011   0.82892   0.80333  -0.54869

