data_crystal

_audit_creation_method 'AiiDA-DDEC plugin'

_cell_length_a         6.67546
_cell_length_b        11.79636
_cell_length_c        12.52987

_cell_angle_alpha     90.00000
_cell_angle_beta     90.00000
_cell_angle_gamma     100.45684

_symmetry_space_group_name_Hall 'P 1'
_symmetry_space_group_name_H-M  'P 1'

loop_
_symmetry_equiv_pos_as_xyz
 'x,y,z'

loop_
_atom_site_label
_atom_site_type_symbol
_atom_site_fract_x
_atom_site_fract_y
_atom_site_fract_z
_atom_site_charge
Al         Al      0.50000   0.00000   0.50000   1.67246
Al         Al      0.00000   0.50000   0.00000   1.67237
Al         Al      0.00000   0.00000   0.50000   1.68180
Al         Al      0.50000   0.50000  -0.00000   1.68180
H          H       0.51479   0.75434   0.76550   0.14058
H          H       0.97927   0.76143   0.74827   0.14925
H          H       0.20411   0.85127   0.47662   0.43676
H          H       0.98523   0.74566   0.26550   0.14069
H          H       0.52074   0.73857   0.24827   0.14911
H          H       0.29590   0.64873   0.97662   0.43677
H          H       0.48522   0.24566   0.23450   0.14067
H          H       0.02074   0.23857   0.25173   0.14913
H          H       0.79590   0.14873   0.52337   0.43673
H          H       0.01478   0.25434   0.73450   0.14066
H          H       0.47927   0.26143   0.75173   0.14917
H          H       0.70411   0.35127   0.02338   0.43671
C          C       0.69894   0.86666   0.64843   0.66729
C          C       0.66999   0.78032   0.73601  -0.16269
C          C       0.82350   0.73435   0.77665  -0.17881
C          C       0.79030   0.64632   0.86250   0.67919
C          C       0.80107   0.63334   0.14844   0.66710
C          C       0.83002   0.71968   0.23601  -0.16236
C          C       0.67651   0.76565   0.27665  -0.17915
C          C       0.70971   0.85368   0.36250   0.67936
C          C       0.30107   0.13334   0.35156   0.66716
C          C       0.33001   0.21968   0.26399  -0.16242
C          C       0.17651   0.26565   0.22335  -0.17911
C          C       0.20971   0.35368   0.13750   0.67930
C          C       0.19894   0.36666   0.85156   0.66730
C          C       0.16999   0.28032   0.76399  -0.16261
C          C       0.32349   0.23435   0.72335  -0.17893
C          C       0.29030   0.14632   0.63750   0.67921
O          O       0.87319   0.88816   0.60356  -0.60697
O          O       0.54190   0.90910   0.62439  -0.59649
O          O       0.95040   0.62250   0.90659  -0.60206
O          O       0.60687   0.60225   0.88614  -0.60298
O          O       0.22794   0.92940   0.50412  -1.00018
O          O       0.62682   0.61184   0.10356  -0.60720
O          O       0.95811   0.59090   0.12439  -0.59615
O          O       0.54961   0.87750   0.40660  -0.60233
O          O       0.89314   0.89775   0.38615  -0.60279
O          O       0.27207   0.57060   0.00412  -1.00018
O          O       0.12682   0.11184   0.39644  -0.60709
O          O       0.45811   0.09090   0.37561  -0.59631
O          O       0.04960   0.37750   0.09340  -0.60217
O          O       0.39314   0.39775   0.11385  -0.60286
O          O       0.77207   0.07060   0.49588  -1.00013
O          O       0.37319   0.38816   0.89644  -0.60713
O          O       0.04190   0.40910   0.87561  -0.59639
O          O       0.45040   0.12250   0.59340  -0.60210
O          O       0.10687   0.10225   0.61385  -0.60290
O          O       0.72794   0.42940   0.99588  -1.00010

