data_crystal

_audit_creation_method 'AiiDA-DDEC plugin'

_cell_length_a         9.83968
_cell_length_b         9.61305
_cell_length_c        13.81171

_cell_angle_alpha     101.86487
_cell_angle_beta     90.00000
_cell_angle_gamma     90.00000

_symmetry_space_group_name_Hall 'P 1'
_symmetry_space_group_name_H-M  'P 1'

loop_
_symmetry_equiv_pos_as_xyz
 'x,y,z'

loop_
_atom_site_label
_atom_site_type_symbol
_atom_site_fract_x
_atom_site_fract_y
_atom_site_fract_z
_atom_site_charge
Zn         Zn      0.06446   0.90760   0.59938   0.68227
Zn         Zn      0.56446   0.59240   0.40062   0.68224
Zn         Zn      0.93554   0.09240   0.40062   0.68226
Zn         Zn      0.43554   0.40760   0.59938   0.68223
H          H       0.88226   0.12023   0.88162   0.12537
H          H       0.76570   0.38676   0.16970   0.35954
H          H       0.20084   0.64677   0.67564   0.13369
H          H       0.30786   0.80547   0.42332   0.12985
H          H       0.38226   0.37977   0.11838   0.12535
H          H       0.26569   0.11324   0.83030   0.35966
H          H       0.70084   0.85323   0.32436   0.13366
H          H       0.80786   0.69453   0.57668   0.12984
H          H       0.11774   0.87977   0.11838   0.12533
H          H       0.23430   0.61324   0.83030   0.35940
H          H       0.79916   0.35323   0.32436   0.13368
H          H       0.69214   0.19453   0.57668   0.12984
H          H       0.61774   0.62023   0.88162   0.12540
H          H       0.73431   0.88676   0.16970   0.35968
H          H       0.29916   0.14677   0.67564   0.13369
H          H       0.19214   0.30547   0.42332   0.12984
C          C       0.93375   0.06532   0.93255  -0.09381
C          C       0.06880   0.93800   0.79156   0.59488
C          C       0.90386   0.10712   0.03331  -0.03243
C          C       0.02998   0.96006   0.89841  -0.02545
C          C       0.25114   0.66276   0.60898   0.16095
C          C       0.30599   0.74519   0.48160   0.14988
C          C       0.80842   0.22922   0.06178   0.57606
C          C       0.43375   0.43468   0.06745  -0.09396
C          C       0.56880   0.56200   0.20844   0.59464
C          C       0.40386   0.39288   0.96669  -0.03230
C          C       0.52999   0.53995   0.10159  -0.02549
C          C       0.75114   0.83724   0.39102   0.16086
C          C       0.80599   0.75482   0.51840   0.14977
C          C       0.30841   0.27078   0.93822   0.57584
C          C       0.06625   0.93468   0.06745  -0.09386
C          C       0.93120   0.06200   0.20844   0.59486
C          C       0.09613   0.89288   0.96669  -0.03237
C          C       0.97002   0.03995   0.10159  -0.02547
C          C       0.74886   0.33724   0.39102   0.16088
C          C       0.69401   0.25481   0.51840   0.14981
C          C       0.19160   0.77078   0.93822   0.57600
C          C       0.56625   0.56532   0.93255  -0.09388
C          C       0.43120   0.43800   0.79156   0.59465
C          C       0.59614   0.60713   0.03331  -0.03237
C          C       0.47001   0.46005   0.89841  -0.02553
C          C       0.24886   0.16276   0.60898   0.16085
C          C       0.19401   0.24519   0.48160   0.14980
C          C       0.69158   0.72922   0.06179   0.57578
N          N       0.21317   0.76012   0.55570  -0.31086
N          N       0.36103   0.59099   0.56999  -0.18834
N          N       0.39649   0.64428   0.48818  -0.19349
N          N       0.71317   0.73989   0.44430  -0.31095
N          N       0.86104   0.90901   0.43001  -0.18808
N          N       0.89649   0.85572   0.51182  -0.19339
N          N       0.78683   0.23989   0.44430  -0.31084
N          N       0.63897   0.40901   0.43001  -0.18824
N          N       0.60351   0.35572   0.51182  -0.19347
N          N       0.28683   0.26011   0.55570  -0.31089
N          N       0.13896   0.09099   0.56999  -0.18818
N          N       0.10351   0.14428   0.48818  -0.19338
O          O       0.97861   0.88836   0.72531  -0.52883
O          O       0.18451   0.97711   0.76701  -0.55536
O          O       0.82682   0.30011   0.15622  -0.50199
O          O       0.72634   0.26413   0.00469  -0.48193
O          O       0.47861   0.61165   0.27469  -0.52879
O          O       0.68452   0.52289   0.23299  -0.55512
O          O       0.32682   0.19989   0.84378  -0.50213
O          O       0.22635   0.23588   0.99530  -0.48159
O          O       0.02139   0.11164   0.27469  -0.52882
O          O       0.81549   0.02289   0.23299  -0.55534
O          O       0.17318   0.69989   0.84378  -0.50199
O          O       0.27365   0.73588   0.99530  -0.48174
O          O       0.52139   0.38836   0.72531  -0.52882
O          O       0.31548   0.47711   0.76701  -0.55508
O          O       0.67318   0.80011   0.15622  -0.50198
O          O       0.77367   0.76414   0.00469  -0.48179

