data_crystal

_audit_creation_method 'AiiDA-DDEC plugin'

_cell_length_a         7.82056
_cell_length_b        11.43277
_cell_length_c        13.35709

_cell_angle_alpha     94.96010
_cell_angle_beta     106.12323
_cell_angle_gamma     100.90427

_symmetry_space_group_name_Hall 'P 1'
_symmetry_space_group_name_H-M  'P 1'

loop_
_symmetry_equiv_pos_as_xyz
 'x,y,z'

loop_
_atom_site_label
_atom_site_type_symbol
_atom_site_fract_x
_atom_site_fract_y
_atom_site_fract_z
_atom_site_charge
V          V       0.86467   0.68591   0.98204   1.81780
V          V       0.83410   0.44667   0.88697   1.24090
V          V       0.13934   0.31878   0.02115   1.82271
V          V       0.17251   0.55938   0.11434   1.23662
Ni         Ni      0.50385   0.50112   0.00136   0.96336
Ni         Ni      0.00316   0.00168   0.00113   0.57219
H          H       0.10104   0.85824   0.84132   0.10670
H          H       0.10595   0.86756   0.65806   0.11141
H          H       0.85781   0.17489   0.66091   0.11828
H          H       0.86383   0.15438   0.84347   0.10786
H          H       0.91790   0.11276   0.50514   0.10613
H          H       0.64536   0.66449   0.20810   0.10812
H          H       0.83048   0.65759   0.39019   0.11522
H          H       0.91631   0.31430   0.27352   0.11926
H          H       0.71409   0.33187   0.09844   0.11635
H          H       0.06530   0.39314   0.45583   0.11141
H          H       0.90725   0.14577   0.16150   0.10551
H          H       0.89231   0.13187   0.34279   0.11177
H          H       0.13975   0.82366   0.33896   0.11905
H          H       0.14199   0.84880   0.15819   0.10453
H          H       0.08100   0.88636   0.49508   0.10717
H          H       0.36229   0.33713   0.79500   0.10958
H          H       0.17263   0.34227   0.61362   0.11485
H          H       0.08692   0.68506   0.72978   0.12117
H          H       0.29391   0.66981   0.90414   0.11673
H          H       0.93781   0.60654   0.54781   0.10985
C          C       0.04910   0.92702   0.79787   0.08162
C          C       0.04970   0.93306   0.69518  -0.19173
C          C       0.97953   0.02262   0.64058   0.12947
C          C       0.91321   0.10329   0.69776  -0.18061
C          C       0.91591   0.09169   0.80034   0.08665
C          C       0.97278   0.03628   0.53305  -0.13554
C          C       0.70386   0.58662   0.22814   0.09996
C          C       0.80678   0.58151   0.32931  -0.18865
C          C       0.88491   0.48102   0.35101   0.13470
C          C       0.85237   0.39106   0.26484  -0.16728
C          C       0.74291   0.40093   0.16603   0.10653
C          C       0.99304   0.46610   0.45555  -0.13217
C          C       0.95740   0.07614   0.20452   0.07825
C          C       0.95111   0.06754   0.30597  -0.19201
C          C       0.01958   0.97691   0.35995   0.13111
C          C       0.08700   0.89669   0.30292  -0.17955
C          C       0.08957   0.91098   0.20156   0.08745
C          C       0.02592   0.96284   0.46735  -0.13831
C          C       0.30294   0.41459   0.77486   0.09844
C          C       0.19753   0.41881   0.67405  -0.18778
C          C       0.11856   0.51871   0.65222   0.13349
C          C       0.15201   0.60905   0.73819  -0.16888
C          C       0.26390   0.60040   0.83661   0.10305
C          C       0.00972   0.53344   0.54783  -0.12947
N          N       0.98451   0.00591   0.85223  -0.17834
N          N       0.66718   0.49681   0.14744  -0.21410
N          N       0.02378  -0.00185   0.15035  -0.18078
N          N       0.34087   0.50521   0.85500  -0.21216
O          O       0.65730   0.40746   0.93160  -0.78009
O          O       0.65425   0.66892   0.99139  -0.77060
O          O       0.01177   0.65208   0.10564  -0.94726
O          O       0.94366   0.82929   0.97054  -0.80592
O          O       0.85258   0.59591   0.85802  -0.88787
O          O       0.35084   0.59654   0.06988  -0.78618
O          O       0.34848   0.33732   0.00920  -0.77768
O          O       0.98785   0.34984   0.89875  -0.94599
O          O       0.06283   0.17449   0.03072  -0.80387
O          O       0.15153   0.41038   0.14475  -0.88243

