data_crystal

_audit_creation_method 'AiiDA-DDEC plugin'

_cell_length_a         8.73792
_cell_length_b         8.73793
_cell_length_c        14.76633

_cell_angle_alpha     90.78168
_cell_angle_beta     90.78151
_cell_angle_gamma     90.51529

_symmetry_space_group_name_Hall 'P 1'
_symmetry_space_group_name_H-M  'P 1'

loop_
_symmetry_equiv_pos_as_xyz
 'x,y,z'

loop_
_atom_site_label
_atom_site_type_symbol
_atom_site_fract_x
_atom_site_fract_y
_atom_site_fract_z
_atom_site_charge
Cd         Cd      0.49233   0.50767   0.25000   0.43582
Cd         Cd      0.50767   0.49232   0.75000   0.43584
Cd         Cd      0.50000  -0.00000  -0.00000   0.97067
Cd         Cd     -0.00000   0.50000   0.50000   0.97068
H          H       0.81059   0.90927   0.04682   0.33404
H          H       0.80798   0.09901   0.05065   0.33481
H          H       0.82563   0.00794   0.95214   0.32875
H          H       0.09072   0.18941   0.45318   0.33400
H          H       0.90098   0.19201   0.44935   0.33491
H          H       0.99205   0.17436   0.54786   0.32889
H          H       0.18941   0.09072   0.95318   0.33398
H          H       0.19201   0.90098   0.94935   0.33492
H          H       0.17436   0.99206   0.04786   0.32889
H          H       0.90927   0.81058   0.54682   0.33404
H          H       0.09901   0.80798   0.55065   0.33480
H          H       0.00794   0.82563   0.45214   0.32871
C          C       0.49252   0.71374   0.16324  -0.04895
C          C       0.69817   0.50842   0.34044  -0.05310
C          C       0.28626   0.50747   0.33676  -0.04922
C          C       0.49158   0.30183   0.15956  -0.05316
C          C       0.50747   0.28626   0.83677  -0.04940
C          C       0.30183   0.49158   0.65956  -0.05320
C          C       0.71373   0.49252   0.66324  -0.04873
C          C       0.50842   0.69816   0.84044  -0.05312
N          N       0.49174   0.81710   0.11352  -0.37871
N          N       0.50888   0.80208   0.89147  -0.37728
N          N       0.77424   0.00453   0.01381  -0.84283
N          N       0.18290   0.50826   0.38648  -0.37844
N          N       0.19792   0.49111   0.60854  -0.37713
N          N       0.99546   0.22575   0.48619  -0.84301
N          N       0.50826   0.18290   0.88648  -0.37823
N          N       0.49112   0.19792   0.10853  -0.37719
N          N       0.22575   0.99546   0.98619  -0.84302
N          N       0.81710   0.49173   0.61352  -0.37895
N          N       0.80208   0.50888   0.39147  -0.37728
N          N       0.00453   0.77424   0.51381  -0.84281

