data_crystal

_audit_creation_method 'AiiDA-DDEC plugin'

_cell_length_a        11.58557
_cell_length_b        11.58664
_cell_length_c        18.09056

_cell_angle_alpha     94.56651
_cell_angle_beta     94.70014
_cell_angle_gamma     116.32708

_symmetry_space_group_name_Hall 'P 1'
_symmetry_space_group_name_H-M  'P 1'

loop_
_symmetry_equiv_pos_as_xyz
 'x,y,z'

loop_
_atom_site_label
_atom_site_type_symbol
_atom_site_fract_x
_atom_site_fract_y
_atom_site_fract_z
_atom_site_charge
Mg         Mg      0.28048   0.98096   0.26159   1.57490
Mg         Mg      0.02194   0.72151   0.23883   1.57069
Mg         Mg      0.71952   0.01904   0.73841   1.57485
Mg         Mg      0.97807   0.27848   0.76117   1.57063
H          H       0.85273   0.73722   0.07388   0.35401
H          H       0.33310   0.73051   0.06252   0.34869
H          H       0.26976   0.78120   0.20603   0.39884
H          H       0.22945   0.10593   0.13640   0.34040
H          H       0.51836   0.15242   0.16011   0.34988
H          H       0.26301   0.14762   0.42660   0.35397
H          H       0.26975   0.66672   0.43778   0.34875
H          H       0.22146   0.73253   0.29569   0.40068
H          H       0.89532   0.77108   0.36366   0.34069
H          H       0.84747   0.48228   0.33971   0.34969
H          H       0.14727   0.26278   0.92612   0.35386
H          H       0.66690   0.26949   0.93748   0.34865
H          H       0.73024   0.21879   0.79397   0.39862
H          H       0.77056   0.89406   0.86360   0.34018
H          H       0.48164   0.84757   0.83989   0.34971
H          H       0.73700   0.85238   0.57340   0.35381
H          H       0.73025   0.33327   0.56223   0.34885
H          H       0.77854   0.26746   0.70432   0.40046
H          H       0.10468   0.22891   0.63634   0.34062
H          H       0.15253   0.51772   0.66029   0.34968
C          C       0.05250   0.90205   0.13320   0.66292
C          C       0.02576   0.95140   0.06545  -0.29779
C          C       0.90803   0.87666   0.01629   0.19359
C          C       0.11765   0.07515   0.04856   0.19439
C          C       0.40214   0.92716   0.13864   0.61606
C          C       0.45488   0.96460   0.06891  -0.30256
C          C       0.42583   0.86613   0.00731   0.19499
C          C       0.52961   0.09828   0.06125   0.19449
C          C       0.09837   0.94806   0.36699   0.66433
C          C       0.04856   0.97479   0.43449  -0.29805
C          C       0.12318   0.09215   0.48381   0.19239
C          C       0.92495   0.88267   0.45126   0.19587
C          C       0.07322   0.59798   0.36143   0.61462
C          C       0.03549   0.54538   0.43116  -0.30201
C          C       0.13394   0.57441   0.49291   0.19450
C          C       0.90184   0.47051   0.43863   0.19470
C          C       0.94751   0.09794   0.86680   0.66273
C          C       0.97424   0.04860   0.93455  -0.29777
C          C       0.09197   0.12333   0.98371   0.19369
C          C       0.88235   0.92484   0.95144   0.19443
C          C       0.59786   0.07284   0.86136   0.61600
C          C       0.54512   0.03539   0.93109  -0.30258
C          C       0.57417   0.13387   0.99269   0.19516
C          C       0.47039   0.90172   0.93875   0.19432
C          C       0.90164   0.05194   0.63301   0.66442
C          C       0.95144   0.02520   0.56551  -0.29812
C          C       0.87683   0.90785   0.51619   0.19246
C          C       0.07505   0.11733   0.54874   0.19597
C          C       0.92679   0.40202   0.63857   0.61415
C          C       0.96451   0.45462   0.56884  -0.30173
C          C       0.86606   0.42559   0.50709   0.19451
C          C       0.09816   0.52948   0.56138   0.19458
O          O       0.15141   0.97784   0.18142  -0.73341
O          O       0.97817   0.78334   0.14493  -0.70102
O          O       0.81643   0.75939   0.02886  -0.39536
O          O       0.41746   0.01603   0.19346  -0.71399
O          O       0.33732   0.80536   0.14461  -0.51463
O          O       0.35451   0.73753   0.01045  -0.41079
O          O       0.23186   0.15159   0.09221  -0.39916
O          O       0.56160   0.19554   0.11795  -0.40961
O          O       0.02263   0.84927   0.31868  -0.73164
O          O       0.21721   0.02201   0.35541  -0.70337
O          O       0.24049   0.18388   0.47135  -0.39635
O          O       0.98470   0.58339   0.30644  -0.71275
O          O       0.19513   0.66180   0.35556  -0.51384
O          O       0.26260   0.64551   0.48991  -0.41125
O          O       0.84898   0.76860   0.40753  -0.40007
O          O       0.80458   0.43888   0.38186  -0.40878
O          O       0.84859   0.02215   0.81858  -0.73323
O          O       0.02183   0.21665   0.85507  -0.70117
O          O       0.18358   0.24061   0.97114  -0.39535
O          O       0.58254   0.98396   0.80654  -0.71375
O          O       0.66268   0.19463   0.85539  -0.51490
O          O       0.64550   0.26246   0.98955  -0.41112
O          O       0.76814   0.84840   0.90779  -0.39897
O          O       0.43840   0.80445   0.88205  -0.40915
O          O       0.97737   0.15072   0.68132  -0.73173
O          O       0.78280   0.97798   0.64459  -0.70342
O          O       0.75951   0.81611   0.52865  -0.39616
O          O       0.01531   0.41660   0.69356  -0.71234
O          O       0.80488   0.33819   0.64444  -0.51384
O          O       0.73741   0.35449   0.51009  -0.41151
O          O       0.15102   0.23139   0.59247  -0.40013
O          O       0.19542   0.56111   0.61814  -0.40857
O          O       0.21649   0.78772   0.25119  -1.08740
O          O       0.78351   0.21227   0.74881  -1.08700

