data_crystal

_audit_creation_method 'AiiDA-DDEC plugin'

_cell_length_a        10.37336
_cell_length_b        10.36798
_cell_length_c        14.06048

_cell_angle_alpha     90.00000
_cell_angle_beta     90.00000
_cell_angle_gamma     90.00000

_symmetry_space_group_name_Hall 'P 1'
_symmetry_space_group_name_H-M  'P 1'

loop_
_symmetry_equiv_pos_as_xyz
 'x,y,z'

loop_
_atom_site_label
_atom_site_type_symbol
_atom_site_fract_x
_atom_site_fract_y
_atom_site_fract_z
_atom_site_charge
Y          Y       0.62768   0.62773   0.87498   1.89602
Y          Y       0.37233   0.37227   0.37499   1.89615
Y          Y       0.37233   0.62773   0.12501   1.89609
Y          Y       0.62768   0.37227   0.62501   1.89604
H          H       0.96842   0.57902   0.10815   0.13623
H          H       0.03159   0.42098   0.60815   0.13623
H          H       0.42084   0.96837   0.35821   0.13569
H          H       0.57917   0.03164   0.85821   0.13570
H          H       0.03159   0.57902   0.89185   0.13617
H          H       0.96842   0.42098   0.39185   0.13619
H          H       0.57917   0.96837   0.64178   0.13566
H          H       0.42084   0.03164   0.14178   0.13563
H          H       0.60946   0.50000   0.25000   0.10331
H          H       0.39054   0.50000   0.75000   0.10334
H          H       0.50000   0.60914   0.50000   0.10126
H          H       0.50000   0.39086   0.00000   0.10130
C          C       0.78037   0.54328   0.16964  -0.05206
C          C       0.91534   0.54460   0.16989  -0.07114
C          C       0.70418   0.58286   0.08483   0.63621
C          C       0.21964   0.45672   0.66964  -0.05215
C          C       0.08466   0.45540   0.66989  -0.07115
C          C       0.29582   0.41715   0.58483   0.63617
C          C       0.45667   0.78004   0.41956  -0.05174
C          C       0.45524   0.91517   0.41992  -0.06918
C          C       0.41727   0.70440   0.33428   0.63688
C          C       0.54333   0.21996   0.91956  -0.05175
C          C       0.54476   0.08483   0.91992  -0.06922
C          C       0.58273   0.29560   0.83427   0.63694
C          C       0.21964   0.54328   0.83036  -0.05214
C          C       0.08466   0.54460   0.83010  -0.07120
C          C       0.29582   0.58286   0.91517   0.63619
C          C       0.78037   0.45672   0.33036  -0.05203
C          C       0.91534   0.45540   0.33010  -0.07116
C          C       0.70418   0.41715   0.41517   0.63623
C          C       0.54333   0.78004   0.58044  -0.05175
C          C       0.54476   0.91517   0.58007  -0.06922
C          C       0.58273   0.70440   0.66572   0.63716
C          C       0.45667   0.21996   0.08044  -0.05165
C          C       0.45524   0.08483   0.08008  -0.06922
C          C       0.41727   0.29560   0.16572   0.63694
C          C       0.71397   0.50000   0.25000  -0.08403
C          C       0.98246   0.50000   0.25000  -0.04446
C          C       0.12647   0.50000   0.25000   0.64966
C          C       0.28604   0.50000   0.75000  -0.08389
C          C       0.01755   0.50000   0.75000  -0.04438
C          C       0.87353   0.50000   0.75000   0.64985
C          C       0.50000   0.71371   0.50000  -0.08395
C          C       0.50000   0.98226   0.50000  -0.04767
C          C       0.50000   0.12646   0.50000   0.64840
C          C       0.50000   0.28629   0.00000  -0.08401
C          C       0.50000   0.01774   0.00000  -0.04772
C          C       0.50000   0.87354   0.00000   0.64838
O          O       0.76028   0.59669   0.00487  -0.59757
O          O       0.58233   0.59770   0.09463  -0.68087
O          O       0.18232   0.41829   0.30393  -0.63000
O          O       0.23972   0.40331   0.50486  -0.59761
O          O       0.41767   0.40230   0.59463  -0.68074
O          O       0.81768   0.58171   0.80393  -0.63003
O          O       0.40326   0.76128   0.25462  -0.59895
O          O       0.40257   0.58229   0.34292  -0.68144
O          O       0.58352   0.18237   0.55233  -0.62941
O          O       0.59674   0.23872   0.75462  -0.59897
O          O       0.59743   0.41771   0.84292  -0.68140
O          O       0.41649   0.81763   0.05233  -0.62950
O          O       0.23972   0.59669   0.99513  -0.59767
O          O       0.41767   0.59770   0.90537  -0.68076
O          O       0.81768   0.41829   0.69606  -0.63002
O          O       0.76028   0.40331   0.49513  -0.59759
O          O       0.58233   0.40230   0.40537  -0.68086
O          O       0.18232   0.58171   0.19607  -0.62983
O          O       0.59674   0.76128   0.74538  -0.59919
O          O       0.59743   0.58229   0.65707  -0.68145
O          O       0.41649   0.18237   0.44767  -0.62948
O          O       0.40326   0.23872   0.24538  -0.59911
O          O       0.40257   0.41771   0.15708  -0.68138
O          O       0.58352   0.81763   0.94767  -0.62937

