data_crystal

_audit_creation_method 'AiiDA-DDEC plugin'

_cell_length_a         7.23299
_cell_length_b        12.43440
_cell_length_c        14.92982

_cell_angle_alpha     113.83425
_cell_angle_beta     103.13567
_cell_angle_gamma     91.80914

_symmetry_space_group_name_Hall 'P 1'
_symmetry_space_group_name_H-M  'P 1'

loop_
_symmetry_equiv_pos_as_xyz
 'x,y,z'

loop_
_atom_site_label
_atom_site_type_symbol
_atom_site_fract_x
_atom_site_fract_y
_atom_site_fract_z
_atom_site_charge
Tb         Tb      0.99468   0.91769   0.21114   2.06967
Tb         Tb      0.50140   0.70750   0.79158   2.06972
Tb         Tb      0.00655   0.08402   0.79053   2.06931
Tb         Tb      0.49000   0.29654   0.21315   2.07156
H          H       0.01937   0.56571   0.27559   0.10961
H          H       0.06662   0.89521   0.53754   0.14302
H          H       0.16832   0.56608   0.56090   0.07918
H          H       0.47858   0.29186   0.73422   0.11091
H          H       0.42359   0.36413   0.47128   0.14535
H          H       0.34345   0.00820   0.44943   0.08440
H          H       0.98242   0.43549   0.72541   0.10997
H          H       0.92936   0.10377   0.46413   0.14415
H          H       0.83134   0.43251   0.43928   0.07917
H          H       0.52520   0.71161   0.27115   0.10991
H          H       0.57556   0.64100   0.53492   0.14548
H          H       0.65556   0.99573   0.55481   0.08361
C          C       0.05164   0.61551   0.35779   0.08838
C          C       0.04527   0.73852   0.39887  -0.08150
C          C       0.07618   0.80046   0.50364  -0.04684
C          C       0.11837   0.73781   0.56378  -0.11809
C          C       0.13144   0.61624   0.51577   0.10075
C          C       0.00637   0.80007   0.33084   0.56562
C          C       0.14150   0.79933   0.67559   0.69132
C          C       0.44915   0.25973   0.65192   0.08769
C          C       0.45060   0.34249   0.60982  -0.07745
C          C       0.41870   0.30143   0.50506  -0.04876
C          C       0.37936   0.17872   0.44559  -0.11570
C          C       0.37577   0.10357   0.49454   0.10181
C          C       0.48325   0.47180   0.67596   0.56561
C          C       0.34723   0.13030   0.33337   0.68624
C          C       0.94964   0.38496   0.64325   0.08892
C          C       0.95463   0.26170   0.60261  -0.07830
C          C       0.92131   0.19882   0.49780  -0.04873
C          C       0.87767   0.26105   0.43735  -0.12110
C          C       0.86738   0.38290   0.48490   0.09923
C          C       0.99417   0.20067   0.67105   0.56261
C          C       0.85251   0.19916   0.32557   0.69544
C          C       0.55410   0.74348   0.35332   0.08811
C          C       0.55273   0.66119   0.39575  -0.07812
C          C       0.58083   0.70288   0.50038  -0.04857
C          C       0.61802   0.82567   0.55931  -0.11544
C          C       0.62381   0.90030   0.51013   0.10000
C          C       0.52206   0.53217   0.32980   0.56380
C          C       0.64351   0.87539   0.67114   0.68692
S          S       0.74277   0.81853   0.00182   1.35804
S          S       0.25571   0.18187   0.00014   1.36102
N          N       0.09407   0.55452   0.41445  -0.26292
N          N       0.41403   0.14186   0.59588  -0.26150
N          N       0.90706   0.44539   0.58615  -0.25873
N          N       0.58774   0.86130   0.40890  -0.25950
O          O       0.99199   0.74196   0.23566  -0.63250
O          O       0.99221   0.91146   0.36713  -0.63703
O          O       0.08140   0.89866   0.70975  -0.66127
O          O       0.21509   0.74785   0.73202  -0.70116
O          O       0.72409   0.92779   0.09076  -0.69623
O          O       0.91700   0.77254   0.04365  -0.69236
O          O       0.48232   0.50865   0.76945  -0.63050
O          O       0.50916   0.54704   0.63952  -0.63694
O          O       0.38283   0.20132   0.29633  -0.66566
O          O       0.28668   0.01907   0.27870  -0.70191
O          O       0.76665   0.84294   0.91353  -0.70303
O          O       0.56430   0.72925   0.95906  -0.68764
O          O       0.00823   0.25911   0.76616  -0.63098
O          O       0.00921   0.08936   0.63505  -0.63638
O          O       0.91841   0.10163   0.29236  -0.66070
O          O       0.77064   0.24716   0.26791  -0.69997
O          O       0.27061   0.07101   0.91124  -0.69919
O          O       0.08162   0.22810   0.95853  -0.69497
O          O       0.52276   0.49505   0.23614  -0.63133
O          O       0.49668   0.45742   0.36679  -0.63652
O          O       0.59200   0.80676   0.70711  -0.66466
O          O       0.71348   0.98518   0.72624  -0.70042
O          O       0.23159   0.15822   0.08870  -0.70846
O          O       0.43468   0.27045   0.04211  -0.68549

