data_crystal

_audit_creation_method 'AiiDA-DDEC plugin'

_cell_length_a         9.51856
_cell_length_b         9.96435
_cell_length_c        11.18566

_cell_angle_alpha     91.84772
_cell_angle_beta     97.27171
_cell_angle_gamma     109.91713

_symmetry_space_group_name_Hall 'P 1'
_symmetry_space_group_name_H-M  'P 1'

loop_
_symmetry_equiv_pos_as_xyz
 'x,y,z'

loop_
_atom_site_label
_atom_site_type_symbol
_atom_site_fract_x
_atom_site_fract_y
_atom_site_fract_z
_atom_site_charge
La         La      0.72299   0.96415   0.02645   1.98433
La         La      0.27700   0.03585   0.97356   1.98443
H          H       0.67422   0.51240   0.98210   0.14119
H          H       0.80253   0.20715   0.77958   0.13523
H          H       0.09728   0.64784   0.83987   0.13591
H          H       0.82694   0.41640   0.57751   0.12956
H          H       0.73920   0.28517   0.37222   0.12267
H          H       0.08389   0.09710   0.43133   0.10498
H          H       0.17230   0.22822   0.63761   0.14307
H          H       0.74051   0.86712   0.74230   0.40908
H          H       0.90637   0.96474   0.78940   0.40321
H          H       0.32578   0.48760   0.01790   0.14097
H          H       0.19747   0.79286   0.22043   0.13531
H          H       0.90272   0.35216   0.16014   0.13594
H          H       0.17306   0.58360   0.42249   0.12937
H          H       0.26079   0.71483   0.62779   0.12263
H          H       0.91610   0.90290   0.56868   0.10507
H          H       0.82769   0.77179   0.36239   0.14309
H          H       0.25949   0.13289   0.25770   0.40926
H          H       0.09363   0.03527   0.21061   0.40327
C          C       0.92288   0.74177   0.97623   0.63073
C          C       0.88928   0.59521   0.91787  -0.03803
C          C       0.75351   0.48751   0.93122  -0.11087
C          C       0.72376   0.34728   0.88368  -0.02279
C          C       0.58583   0.23253   0.91014   0.60078
C          C       0.82473   0.31614   0.81616  -0.18832
C          C       0.95514   0.42691   0.79753   0.24480
C          C       0.99135   0.56513   0.85070  -0.19078
C          C       0.00425   0.32843   0.61846   0.26950
C          C       0.88188   0.34586   0.54507  -0.21725
C          C       0.83347   0.27315   0.43106  -0.06346
C          C       0.90529   0.18266   0.38892  -0.07696
C          C       0.84450   0.10136   0.26936   0.56282
C          C       0.02986   0.16906   0.46271  -0.08020
C          C       0.07979   0.24141   0.57732  -0.20258
C          C       0.07711   0.25823   0.02378   0.63080
C          C       0.11071   0.40479   0.08214  -0.03807
C          C       0.24649   0.51250   0.06879  -0.11086
C          C       0.27624   0.65272   0.11633  -0.02275
C          C       0.41417   0.76747   0.08986   0.60058
C          C       0.17526   0.68386   0.18384  -0.18812
C          C       0.04486   0.57310   0.20247   0.24467
C          C       0.00865   0.43488   0.14931  -0.19071
C          C       0.99574   0.67157   0.38155   0.26950
C          C       0.11812   0.65415   0.45493  -0.21734
C          C       0.16653   0.72686   0.56895  -0.06337
C          C       0.09471   0.81734   0.61108  -0.07724
C          C       0.15550   0.89865   0.73064   0.56297
C          C       0.97014   0.83094   0.53729  -0.08006
C          C       0.92021   0.75859   0.42268  -0.20248
O          O       0.81469   0.76776   0.01616  -0.63678
O          O       0.05579   0.83306   0.98374  -0.65887
O          O       0.47274   0.26592   0.92886  -0.58626
O          O       0.58316   0.10196   0.91550  -0.70092
O          O       0.05929   0.39932   0.73220  -0.20180
O          O       0.73002   0.11846   0.20679  -0.61787
O          O       0.90377   0.01336   0.22852  -0.62720
O          O       0.79923   0.94728   0.80031  -0.79692
O          O       0.18531   0.23224   0.98385  -0.63701
O          O       0.94421   0.16695   0.01626  -0.65885
O          O       0.52726   0.73408   0.07114  -0.58643
O          O       0.41683   0.89805   0.08450  -0.70063
O          O       0.94071   0.60069   0.26780  -0.20172
O          O       0.26998   0.88154   0.79322  -0.61803
O          O       0.09622   0.98665   0.77149  -0.62704
O          O       0.20077   0.05272   0.19970  -0.79713

