data_crystal

_audit_creation_method 'AiiDA-DDEC plugin'

_cell_length_a         5.86590
_cell_length_b        10.10975
_cell_length_c        11.37837

_cell_angle_alpha     84.62573
_cell_angle_beta     89.78800
_cell_angle_gamma     81.95852

_symmetry_space_group_name_Hall 'P 1'
_symmetry_space_group_name_H-M  'P 1'

loop_
_symmetry_equiv_pos_as_xyz
 'x,y,z'

loop_
_atom_site_label
_atom_site_type_symbol
_atom_site_fract_x
_atom_site_fract_y
_atom_site_fract_z
_atom_site_charge
La         La      0.21503   0.14679   0.46922   2.01261
La         La      0.78497   0.85321   0.53078   2.01268
P          P       0.71901   0.17396   0.66591   1.29424
P          P       0.66258   0.16400   0.31240   1.28419
P          P       0.28098   0.82604   0.33409   1.29412
P          P       0.33741   0.83600   0.68760   1.28430
H          H       0.49056   0.97037   0.16877   0.27126
H          H       0.02778   0.27395   0.74356   0.11787
H          H       0.77066   0.39003   0.73234   0.12903
H          H       0.66542   0.38942   0.47602   0.10530
H          H       0.68804   0.52978   0.55700   0.07727
H          H       0.03096   0.54646   0.66141   0.08195
H          H       0.27084   0.41656   0.65922   0.10476
H          H       0.91603   0.01829   0.20424   0.14716
H          H       0.83076   0.17302   0.11691   0.13897
H          H       0.83199   0.98531   0.97093   0.09925
H          H       0.83457   0.85490   0.08953   0.11469
H          H       0.35279   0.20056   0.09809   0.13373
H          H       0.54772   0.19105   0.97578   0.11462
H          H       0.50943   0.02963   0.83124   0.27124
H          H       0.97221   0.72605   0.25644   0.11791
H          H       0.22933   0.60997   0.26767   0.12883
H          H       0.33457   0.61058   0.52399   0.10534
H          H       0.31195   0.47023   0.44300   0.07715
H          H       0.96903   0.45355   0.33859   0.08174
H          H       0.72915   0.58345   0.34079   0.10479
H          H       0.08397   0.98171   0.79576   0.14740
H          H       0.16923   0.82698   0.88310   0.13903
H          H       0.16800   0.01470   0.02907   0.09934
H          H       0.16542   0.14510   0.91047   0.11476
H          H       0.64720   0.79945   0.90191   0.13350
H          H       0.45228   0.80896   0.02423   0.11459
C          C       0.88006   0.31423   0.68535  -0.38141
C          C       0.78318   0.45590   0.50250  -0.09524
C          C       0.12575   0.47231   0.60722  -0.10047
C          C       0.76864   0.09403   0.17611  -0.37562
C          C       0.72543   0.93110   0.03208  -0.08998
C          C       0.44309   0.13434   0.03645  -0.09645
C          C       0.11993   0.68578   0.31465  -0.38146
C          C       0.21681   0.54411   0.49750  -0.09532
C          C       0.87425   0.52769   0.39278  -0.10042
C          C       0.23135   0.90597   0.82390  -0.37587
C          C       0.27456   0.06891   0.96792  -0.08994
C          C       0.55690   0.86566   0.96356  -0.09624
N          N       0.97263   0.37571   0.57505  -0.14369
N          N       0.60199   0.02967   0.10938   0.03227
N          N       0.02736   0.62430   0.42496  -0.14343
N          N       0.39800   0.97033   0.89063   0.03226
O          O       0.49813   0.22697   0.59487  -0.82307
O          O       0.89019   0.07350   0.60008  -0.88026
O          O       0.67886   0.11454   0.79315  -0.76831
O          O       0.87565   0.22038   0.35051  -0.81011
O          O       0.43849   0.26128   0.29413  -0.80992
O          O       0.60143   0.04115   0.39348  -0.88457
O          O       0.50186   0.77304   0.40513  -0.82316
O          O       0.10981   0.92650   0.39992  -0.88006
O          O       0.32114   0.88547   0.20685  -0.76833
O          O       0.12435   0.77962   0.64949  -0.81021
O          O       0.56150   0.73872   0.70588  -0.81006
O          O       0.39856   0.95885   0.60652  -0.88455

