data_crystal

_audit_creation_method 'AiiDA-DDEC plugin'

_cell_length_a         9.85095
_cell_length_b        11.87535
_cell_length_c        11.85782

_cell_angle_alpha     65.25534
_cell_angle_beta     71.39407
_cell_angle_gamma     71.30748

_symmetry_space_group_name_Hall 'P 1'
_symmetry_space_group_name_H-M  'P 1'

loop_
_symmetry_equiv_pos_as_xyz
 'x,y,z'

loop_
_atom_site_label
_atom_site_type_symbol
_atom_site_fract_x
_atom_site_fract_y
_atom_site_fract_z
_atom_site_charge
Er         Er      0.75342   0.05926   0.93695   1.98075
Er         Er      0.24939   0.94010   0.06227   1.98182
H          H       0.90085   0.88801   0.27391   0.26684
H          H       0.82396   0.92732   0.65998   0.11917
H          H       0.69959   0.79251   0.42872   0.10593
H          H       0.44779   0.80705   0.56118   0.11343
H          H       0.38728   0.86956   0.75191   0.11142
H          H       0.07774   0.79083   0.59398   0.14167
H          H       0.29257   0.79278   0.37771   0.11758
H          H       0.59915   0.72567   0.10943   0.26762
H          H       0.67469   0.33914   0.07145   0.11936
H          H       0.79816   0.57110   0.20578   0.10525
H          H       0.05006   0.43872   0.19216   0.11230
H          H       0.11130   0.24774   0.13069   0.11101
H          H       0.41915   0.40741   0.20951   0.14134
H          H       0.20575   0.62428   0.20907   0.11733
H          H       0.10135   0.11081   0.72492   0.26578
H          H       0.17827   0.07223   0.33819   0.11813
H          H       0.30173   0.20726   0.56989   0.10657
H          H       0.55362   0.19297   0.43763   0.11283
H          H       0.61476   0.12992   0.24724   0.11111
H          H       0.92344   0.20923   0.40514   0.14136
H          H       0.70919   0.20768   0.62158   0.11804
H          H       0.40303   0.27282   0.89007   0.26693
H          H       0.32715   0.65896   0.92923   0.11846
H          H       0.20320   0.42720   0.79476   0.10430
H          H       0.95162   0.56020   0.80797   0.11228
H          H       0.89099   0.75127   0.86903   0.11188
H          H       0.58203   0.59139   0.79065   0.14172
H          H       0.79612   0.37502   0.79071   0.11744
C          C       0.56630   0.94158   0.82878   0.67253
C          C       0.60289   0.90051   0.71740  -0.05280
C          C       0.74380   0.89748   0.63943  -0.13756
C          C       0.78094   0.85714   0.53560   0.03721
C          C       0.67227   0.82522   0.50803  -0.11868
C          C       0.53077   0.83130   0.58418  -0.07948
C          C       0.49609   0.86646   0.69020  -0.09757
C          C       0.93199   0.84585   0.46122   0.14744
C          C       0.06454   0.81380   0.49905  -0.26374
C          C       0.17461   0.81254   0.39003   0.02610
C          C       0.93259   0.16897   0.06046   0.67046
C          C       0.89556   0.28187   0.09915  -0.05174
C          C       0.75458   0.36010   0.10127  -0.13881
C          C       0.71718   0.46423   0.14118   0.03987
C          C       0.82578   0.49178   0.17318  -0.11887
C          C       0.96736   0.41566   0.16763  -0.07814
C          C       0.00230   0.30937   0.13308  -0.09812
C          C       0.56625   0.53911   0.15267   0.14446
C          C       0.43314   0.50201   0.18610  -0.26598
C          C       0.32380   0.61128   0.18818   0.03085
C          C       0.43712   0.05825   0.16963   0.67055
C          C       0.39933   0.09889   0.28142  -0.05200
C          C       0.25819   0.10204   0.35909  -0.13632
C          C       0.22071   0.14251   0.46294   0.03682
C          C       0.32926   0.17448   0.49062  -0.11896
C          C       0.47087   0.16837   0.41472  -0.07842
C          C       0.50591   0.13295   0.30886  -0.09787
C          C       0.06972   0.15389   0.53750   0.14745
C          C       0.93695   0.18626   0.49995  -0.26582
C          C       0.82717   0.18762   0.60911   0.02678
C          C       0.06946   0.82968   0.93950   0.66737
C          C       0.10645   0.71659   0.90112  -0.05055
C          C       0.24724   0.63812   0.89930  -0.13662
C          C       0.28451   0.53399   0.85936   0.03838
C          C       0.17588   0.50658   0.82722  -0.11614
C          C       0.03446   0.58297   0.83257  -0.07948
C          C      -0.00025   0.68931   0.86698  -0.10039
C          C       0.43550   0.45922   0.84771   0.14421
C          C       0.56840   0.49665   0.81415  -0.26622
C          C       0.67807   0.38763   0.81183   0.03161
N          N       0.11619   0.84357   0.28939  -0.30434
N          N       0.96889   0.86240   0.33522  -0.10265
N          N       0.38300   0.71141   0.15620  -0.30548
N          N       0.53025   0.66503   0.13597  -0.10436
N          N       0.88594   0.15631   0.70961  -0.30342
N          N       0.03318   0.13720   0.66354  -0.10215
N          N       0.61922   0.28733   0.84368  -0.30645
N          N       0.47187   0.33332   0.86421  -0.10228
N          N       0.75162   0.82803   0.16834   0.72331
N          N       0.24879   0.17104   0.83051   0.72071
O          O       0.64649   0.00748   0.82833  -0.69046
O          O       0.45766   0.90837   0.91779  -0.69482
O          O       0.80248   0.92113   0.15455  -0.48686
O          O       0.85485   0.16770   0.99355  -0.68906
O          O       0.03990   0.07995   0.09748  -0.69631
O          O       0.70586   0.84007   0.07295  -0.48871
O          O       0.35804   0.99194   0.16906  -0.69186
O          O       0.54594   0.09201   0.08129  -0.69164
O          O       0.19991   0.07673   0.84445  -0.48493
O          O       0.14668   0.83036   0.00722  -0.68873
O          O       0.96290   0.91917   0.90157  -0.69391
O          O       0.29420   0.15989   0.92577  -0.48920
O          O       0.74670   0.73303   0.26701  -0.35948
O          O       0.25206   0.26625   0.73205  -0.35837

