data_crystal

_audit_creation_method 'AiiDA-DDEC plugin'

_cell_length_a         7.72093
_cell_length_b         9.19229
_cell_length_c        17.12974

_cell_angle_alpha     90.27722
_cell_angle_beta     90.21161
_cell_angle_gamma     90.14649

_symmetry_space_group_name_Hall 'P 1'
_symmetry_space_group_name_H-M  'P 1'

loop_
_symmetry_equiv_pos_as_xyz
 'x,y,z'

loop_
_atom_site_label
_atom_site_type_symbol
_atom_site_fract_x
_atom_site_fract_y
_atom_site_fract_z
_atom_site_charge
In         In      0.29769   0.77771   0.61116   1.41690
In         In      0.81456   0.74441   0.54538   1.40419
In         In      0.69109   0.20182   0.10696   1.42670
In         In      0.15959   0.24378   0.05178   1.39795
H          H       0.43111   0.03185   0.33699   0.14312
H          H       0.67377   0.45231   0.34910   0.14758
H          H       0.48727   0.25439   0.55969   0.14602
H          H       0.07241   0.99435   0.81170   0.14646
H          H       0.82171   0.57446   0.79996   0.14157
H          H       0.99434   0.74834   0.02188   0.14047
H          H       0.55704   0.98377   0.84702   0.15061
H          H       0.33800   0.55241   0.84323   0.14710
H          H       0.53640   0.73513   0.05915   0.14547
H          H       0.91839   0.00540   0.31247   0.14646
H          H       0.15986   0.42872   0.30340   0.14071
H          H       0.00678   0.24708   0.52482   0.14043
C          C       0.44680   0.13197   0.45193  -0.04839
C          C       0.46869   0.12713   0.37101  -0.09239
C          C       0.54509   0.24601   0.33389  -0.02196
C          C       0.60582   0.36379   0.37766  -0.06850
C          C       0.58371   0.36663   0.45863  -0.01542
C          C       0.50053   0.25243   0.49644  -0.09068
C          C       0.40345   0.00028   0.49595   0.50700
C          C       0.58257   0.23851   0.24924   0.55356
C          C       0.65981   0.48923   0.50408   0.54758
C          C       0.03609   0.88427   0.92149  -0.02120
C          C       0.02365   0.89685   0.84004  -0.07934
C          C       0.94745   0.78517   0.79593  -0.03608
C          C       0.88320   0.66121   0.83359  -0.07914
C          C       0.90404   0.64474   0.91472  -0.04114
C          C       0.98046   0.75693   0.95884  -0.09848
C          C       0.10156   0.01107   0.96742   0.53737
C          C       0.94339   0.79624   0.70849   0.60346
C          C       0.84707   0.50106   0.94739   0.46690
C          C       0.55460   0.87076   0.95740  -0.01256
C          C       0.52443   0.88339   0.87715  -0.07328
C          C       0.45139   0.76605   0.83620  -0.02663
C          C       0.39972   0.64071   0.87542  -0.07539
C          C       0.43049   0.62949   0.95557  -0.04596
C          C       0.51128   0.74251   0.99677  -0.09333
C          C       0.62390   0.99525   0.00383   0.52516
C          C       0.41649   0.77311   0.75137   0.55348
C          C       0.37320   0.49497   0.99344   0.50906
C          C       0.96118   0.11248   0.42349  -0.02544
C          C       0.96719   0.10265   0.34171  -0.08221
C          C       0.03665   0.21713   0.29830  -0.03325
C          C       0.10300   0.34024   0.33664  -0.07135
C          C       0.08995   0.35348   0.41803  -0.04058
C          C       0.01768   0.23955   0.46163  -0.09539
C          C       0.89954   0.98315   0.46818   0.53412
C          C       0.03802   0.20950   0.21126   0.59542
C          C       0.14720   0.49672   0.45130   0.48176
O          O       0.50790   0.89234   0.47354  -0.05417
O          O       0.29878   0.99273   0.55095  -0.43856
O          O       0.53289   0.12664   0.21044  -0.52744
O          O       0.67352   0.33931   0.21780  -0.53328
O          O       0.62330   0.51226   0.57443  -0.52655
O          O       0.76662   0.56993   0.46502  -0.53013
O          O       0.11727   0.13436   0.93388  -0.51009
O          O       0.13389  -0.00044   0.04097  -0.52752
O          O       0.06541   0.86595   0.67531  -0.56894
O          O       0.81680   0.73400   0.67274  -0.52514
O          O       0.77526   0.40663   0.90984  -0.39408
O          O       0.89224   0.48885   0.02594  -0.08666
O          O       0.09217   0.65872   0.55476  -0.51499
O          O       0.51521   0.76980   0.52788  -0.46053
O          O       0.62387   0.12341   0.97673  -0.53196
O          O       0.67568   0.96951   0.07403  -0.51994
O          O       0.44268   0.88872   0.71266  -0.51808
O          O       0.35001   0.65876   0.71848  -0.52630
O          O       0.48470   0.44815   0.04714  -0.04644
O          O       0.23586   0.43083   0.97611  -0.45127
O          O       0.89318   0.86008   0.43338  -0.51785
O          O       0.85757   0.99325   0.54052  -0.54456
O          O       0.93255   0.12612   0.17519  -0.57196
O          O       0.15152   0.28863   0.17648  -0.52526
O          O       0.21473   0.59341   0.41435  -0.41163
O          O       0.10749   0.50640   0.53050  -0.08854
O          O       0.89440   0.33603   0.05041  -0.51947
O          O       0.43268   0.31197   0.08249  -0.45722

