data_crystal

_audit_creation_method 'AiiDA-DDEC plugin'

_cell_length_a        10.24876
_cell_length_b        12.65217
_cell_length_c        15.69228

_cell_angle_alpha     84.16590
_cell_angle_beta     76.06218
_cell_angle_gamma     65.45623

_symmetry_space_group_name_Hall 'P 1'
_symmetry_space_group_name_H-M  'P 1'

loop_
_symmetry_equiv_pos_as_xyz
 'x,y,z'

loop_
_atom_site_label
_atom_site_type_symbol
_atom_site_fract_x
_atom_site_fract_y
_atom_site_fract_z
_atom_site_charge
Mg         Mg      0.18767   0.62263   0.24950   1.51066
Mg         Mg      0.81233   0.37736   0.75050   1.51058
H          H       0.36607   0.47943   0.00704   0.13979
H          H       0.27923   0.19414   0.14212   0.14223
H          H       0.59791   0.13539   0.89442   0.13974
H          H       0.15569   0.48214   0.49191   0.13964
H          H       0.52704   0.19281   0.35639   0.14254
H          H       0.26683   0.13886   0.60550   0.13954
H          H       0.63393   0.52057   0.99296   0.14001
H          H       0.72077   0.80586   0.85788   0.14218
H          H       0.40208   0.86460   0.10558   0.13960
H          H       0.84431   0.51786   0.50808   0.13970
H          H       0.47296   0.80718   0.64361   0.14571
H          H       0.73317   0.86114   0.39449   0.13922
C          C       0.38595   0.38791   0.01030  -0.05781
C          C       0.33650   0.22817   0.08630  -0.13287
C          C       0.51712   0.19479   0.94576  -0.13944
C          C       0.48913   0.31223   0.94283  -0.00039
C          C       0.43806   0.15366   0.01801   0.14215
C          C       0.31164   0.34555   0.08248  -0.00352
C          C       0.21323   0.42504   0.15875   0.57285
C          C       0.57185   0.36156   0.86766   0.55918
C          C       0.22708   0.39005   0.48879  -0.05504
C          C       0.43580   0.22785   0.41245  -0.13226
C          C       0.28887   0.19730   0.55382  -0.13809
C          C       0.19986   0.31541   0.55672  -0.00495
C          C       0.40879   0.15424   0.48121   0.14054
C          C       0.34346   0.34600   0.41635  -0.00413
C          C       0.36116   0.42556   0.34017   0.56920
C          C       0.06799   0.36618   0.63229   0.56455
C          C       0.61405   0.61209   0.98970  -0.05780
C          C       0.66350   0.77182   0.91370  -0.13277
C          C       0.48288   0.80521   0.05423  -0.13952
C          C       0.51087   0.68777   0.05717  -0.00032
C          C       0.56194   0.84633   0.98198   0.14214
C          C       0.68836   0.65445   0.91752  -0.00358
C          C       0.78677   0.57495   0.84125   0.57270
C          C       0.42815   0.63844   0.13234   0.55903
C          C       0.77292   0.60994   0.51121  -0.05493
C          C       0.56420   0.77214   0.58755  -0.13488
C          C       0.71113   0.80270   0.44618  -0.13765
C          C       0.80014   0.68458   0.44328  -0.00490
C          C       0.59121   0.84576   0.51879   0.14041
C          C       0.65654   0.65400   0.58365  -0.00441
C          C       0.63884   0.57444   0.65983   0.56904
C          C       0.93201   0.63382   0.36771   0.56460
N          N       0.45496   0.03787   0.02717  -0.01826
N          N       0.50689   0.03736   0.47236  -0.01687
N          N       0.54504   0.96213   0.97283  -0.01821
N          N       0.49311   0.96263   0.52763  -0.01706
O          O       0.19392   0.53209   0.15111  -0.67894
O          O       0.16134   0.38005   0.22590  -0.37323
O          O       0.51222   0.46954   0.85722  -0.38866
O          O       0.69482   0.29129   0.82221  -0.65841
O          O       0.27376   0.53343   0.34898  -0.67834
O          O       0.45624   0.38022   0.27218  -0.37357
O          O       0.01578   0.47456   0.64057  -0.38584
O          O       0.01930   0.29601   0.68002  -0.66210
O          O       0.80608   0.46790   0.84888  -0.67873
O          O       0.83866   0.61994   0.77410  -0.37321
O          O       0.48778   0.53045   0.14278  -0.38847
O          O       0.30518   0.70870   0.17779  -0.65853
O          O       0.72624   0.46656   0.65102  -0.67799
O          O       0.54376   0.61977   0.72782  -0.37387
O          O       0.98421   0.52543   0.35943  -0.38565
O          O       0.98070   0.70399   0.31998  -0.66232

