data_crystal

_audit_creation_method 'AiiDA-DDEC plugin'

_cell_length_a         7.91397
_cell_length_b        10.10928
_cell_length_c        13.55725

_cell_angle_alpha     67.54997
_cell_angle_beta     81.13170
_cell_angle_gamma     74.69556

_symmetry_space_group_name_Hall 'P 1'
_symmetry_space_group_name_H-M  'P 1'

loop_
_symmetry_equiv_pos_as_xyz
 'x,y,z'

loop_
_atom_site_label
_atom_site_type_symbol
_atom_site_fract_x
_atom_site_fract_y
_atom_site_fract_z
_atom_site_charge
Cd         Cd      0.85681   0.65803   0.54466   1.04326
Cd         Cd      0.14319   0.34197   0.45534   1.04329
Cd         Cd      0.50000  -0.00000   0.50000   1.08664
H          H       0.82816   0.14394   0.54869   0.11647
H          H       0.77877   0.24871   0.83114   0.11915
H          H       0.82058   0.80181   0.85775   0.12131
H          H       0.58607   0.18703   0.96466   0.11469
H          H       0.54223   0.13034   0.16077   0.11658
H          H       0.87542   0.70180   0.21617   0.12264
H          H       0.93131   0.76089   0.01953   0.11580
H          H       0.17184   0.85605   0.45131   0.11652
H          H       0.22123   0.75129   0.16886   0.11915
H          H       0.17942   0.19818   0.14225   0.12130
H          H       0.41394   0.81296   0.03534   0.11470
H          H       0.45777   0.86966   0.83923   0.11660
H          H       0.12458   0.29820   0.78384   0.12259
H          H       0.06869   0.23910   0.98047   0.11578
C          C       0.82472   0.96182   0.69873  -0.02839
C          C       0.81953   0.10909   0.63536  -0.11205
C          C       0.80628   0.21113   0.68418  -0.03316
C          C       0.78978   0.16669   0.79564  -0.11747
C          C       0.79252   0.01992   0.86054   0.06344
C          C       0.81569   0.91711   0.81059  -0.11783
C          C       0.76538   0.97974   0.97775   0.07341
C          C       0.65456   0.08255   0.01929  -0.13701
C          C       0.62706   0.05052   0.12885  -0.08337
C          C       0.70739   0.91323   0.20035  -0.04670
C          C       0.81445   0.80825   0.16001  -0.08085
C          C       0.84405   0.84164   0.04989  -0.13947
C          C       0.84041   0.85175   0.64822   0.57546
C          C       0.81308   0.36626   0.61917   0.58337
C          C       0.67997   0.88082   0.31805   0.60245
C          C       0.17528   0.03818   0.30127  -0.02833
C          C       0.18047   0.89090   0.36464  -0.11211
C          C       0.19372   0.78887   0.31582  -0.03320
C          C       0.21022   0.83330   0.20436  -0.11741
C          C       0.20748   0.98008   0.13946   0.06340
C          C       0.18432   0.08289   0.18941  -0.11790
C          C       0.23462   0.02026   0.02225   0.07347
C          C       0.34544   0.91745   0.98071  -0.13700
C          C       0.37295   0.94947   0.87115  -0.08318
C          C       0.29262   0.08677   0.79965  -0.04684
C          C       0.18555   0.19174   0.83999  -0.08078
C          C       0.15595   0.15835   0.95011  -0.13960
C          C       0.15959   0.14825   0.35178   0.57548
C          C       0.18692   0.63374   0.38083   0.58340
C          C       0.32003   0.11918   0.68195   0.60243
O          O       0.90933   0.71857   0.69468  -0.50569
O          O       0.78316   0.89744   0.55192  -0.63536
O          O       0.86593   0.40165   0.51994  -0.59115
O          O       0.76640   0.46096   0.66486  -0.53077
O          O       0.58393   0.98785   0.34498  -0.57662
O          O       0.74953   0.75408   0.38058  -0.57548
O          O       0.09067   0.28143   0.30532  -0.50575
O          O       0.21684   0.10256   0.44808  -0.63537
O          O       0.13407   0.59835   0.48006  -0.59112
O          O       0.23361   0.53904   0.33514  -0.53074
O          O       0.41607   0.01215   0.65502  -0.57657
O          O       0.25047   0.24592   0.61943  -0.57553

