data_crystal

_audit_creation_method 'AiiDA-DDEC plugin'

_cell_length_a         7.37730
_cell_length_b         9.99149
_cell_length_c        13.16556

_cell_angle_alpha     89.95907
_cell_angle_beta     90.00638
_cell_angle_gamma     94.07047

_symmetry_space_group_name_Hall 'P 1'
_symmetry_space_group_name_H-M  'P 1'

loop_
_symmetry_equiv_pos_as_xyz
 'x,y,z'

loop_
_atom_site_label
_atom_site_type_symbol
_atom_site_fract_x
_atom_site_fract_y
_atom_site_fract_z
_atom_site_charge
Mn         Mn      0.49716   0.57016   0.43877   1.01881
Mn         Mn      0.02632   0.86130   0.07886   0.84780
Mn         Mn      0.50103   0.43029   0.93798   1.01932
Mn         Mn      0.97397   0.14032   0.57867   0.84797
Mo         Mo      0.96451   0.35642   0.21529   0.60479
Mo         Mo      0.03372   0.64505   0.71495   0.60529
H          H       0.71609   0.06945   0.07568   0.10807
H          H       0.37704   0.07082   0.08625   0.11491
H          H       0.33504   0.65386   0.10154   0.10166
H          H       0.67615   0.65300   0.10017   0.10520
H          H       0.28305   0.93192   0.57626   0.10925
H          H       0.62209   0.93066   0.58663   0.11397
H          H       0.66388   0.34774   0.60010   0.10135
H          H       0.32263   0.34837   0.59905   0.10455
C          C       0.70635   0.24626   0.23860  -0.03320
C          C      -0.00368   0.56292   0.17442   0.04715
C          C       0.79763   0.48079   0.29787   0.03852
C          C       0.19227   0.41493   0.30804   0.02770
C          C       0.19375   0.38042   0.11264   0.05727
C          C       0.80788   0.35450   0.07922   0.00821
C          C       0.02306   0.16012   0.16837   0.01705
C          C       0.97204   0.24995   0.35405   0.07977
C          C       0.63212   0.97609   0.08155   0.07327
C          C       0.44291   0.97688   0.08539   0.07082
C          C       0.42060   0.74668   0.09586   0.04141
C          C       0.60906   0.74610   0.09431   0.04818
C          C       0.29212   0.75422   0.73866  -0.03453
C          C       0.00247   0.43902   0.67314   0.04838
C          C       0.20046   0.52012   0.79721   0.04053
C          C       0.80583   0.58623   0.80735   0.02616
C          C       0.80383   0.62159   0.61291   0.05887
C          C       0.18988   0.64783   0.57841   0.00732
C          C       0.97549   0.84195   0.66918   0.01423
C          C       0.02681   0.75029   0.85429   0.08077
C          C       0.36707   0.02529   0.58173   0.07293
C          C       0.55627   0.02461   0.58550   0.07218
C          C       0.57843   0.25484   0.59492   0.04214
C          C       0.38998   0.25537   0.59349   0.04798
N          N       0.56606   0.18640   0.25366  -0.33194
N          N       0.01118   0.67644   0.15038  -0.35998
N          N       0.69887   0.55259   0.33765  -0.40611
N          N       0.31663   0.44519   0.36151  -0.38736
N          N       0.31884   0.40574   0.05882  -0.38021
N          N       0.70868   0.34397   0.00886  -0.39952
N          N       0.04476   0.05197   0.13753  -0.37056
N          N       0.97359   0.18789   0.42987  -0.37219
N          N       0.71552   0.86124   0.08768  -0.18403
N          N       0.33728   0.86236   0.09282  -0.18556
N          N       0.43280   0.81346   0.75409  -0.33182
N          N       0.98799   0.32569   0.64868  -0.36195
N          N       0.29927   0.44814   0.83680  -0.40777
N          N       0.68118   0.55590   0.86063  -0.38592
N          N       0.67787   0.59611   0.55975  -0.38115
N          N       0.28904   0.65853   0.50803  -0.39871
N          N       0.95404   0.95070   0.63932  -0.36885
N          N       0.02593   0.81173   0.93036  -0.37165
N          N       0.28366   0.14015   0.58748  -0.18435
N          N       0.66185   0.13922   0.59222  -0.18637

