data_crystal

_audit_creation_method 'AiiDA-DDEC plugin'

_cell_length_a        10.06495
_cell_length_b        10.06877
_cell_length_c        10.51350

_cell_angle_alpha     108.21169
_cell_angle_beta     108.28529
_cell_angle_gamma     99.85054

_symmetry_space_group_name_Hall 'P 1'
_symmetry_space_group_name_H-M  'P 1'

loop_
_symmetry_equiv_pos_as_xyz
 'x,y,z'

loop_
_atom_site_label
_atom_site_type_symbol
_atom_site_fract_x
_atom_site_fract_y
_atom_site_fract_z
_atom_site_charge
Ag         Ag      0.73762   0.11266   0.57996   0.43113
Ag         Ag      0.78592   0.48817   0.85699   0.39363
Ag         Ag      0.88732   0.26236   0.92007   0.43087
Ag         Ag      0.51184   0.21409   0.64296   0.39354
Ag         Ag      0.26238   0.88733   0.42004   0.43113
Ag         Ag      0.21408   0.51183   0.14301   0.39367
Ag         Ag      0.11268   0.73764   0.07992   0.43086
Ag         Ag      0.48816   0.78590   0.35704   0.39348
H          H       0.75363   0.76548   0.75743   0.10904
H          H       0.40043   0.90308   0.85120   0.13801
H          H       0.56721   0.58058   0.98566   0.10102
H          H       0.23453   0.24631   0.74264   0.10883
H          H       0.09694   0.59956   0.64870   0.13788
H          H       0.41935   0.43283   0.51444   0.10124
H          H       0.24636   0.23452   0.24257   0.10905
H          H       0.59956   0.09692   0.14879   0.13795
H          H       0.43279   0.41941   0.01434   0.10103
H          H       0.76546   0.75369   0.25736   0.10878
H          H       0.90305   0.40044   0.35130   0.13780
H          H       0.58065   0.56716   0.48556   0.10125
C          C       0.67354   0.76053   0.80661   0.08209
C          C       0.58134   0.84977   0.79904  -0.06213
C          C       0.59384   0.95244   0.72352   0.55812
C          C       0.47691   0.83877   0.86012  -0.04407
C          C       0.47147   0.74213   0.93045  -0.07425
C          C       0.56905   0.65842   0.93394   0.07809
C          C       0.36127   0.71977   0.99656   0.56462
C          C       0.23945   0.32642   0.69343   0.08301
C          C       0.15023   0.41863   0.70097  -0.06150
C          C       0.04758   0.40614   0.77648   0.55726
C          C       0.16123   0.52307   0.63985  -0.04439
C          C       0.25784   0.52855   0.56955  -0.07369
C          C       0.34152   0.43096   0.56611   0.07744
C          C       0.28024   0.63875   0.50343   0.56417
C          C       0.32646   0.23947   0.19338   0.08216
C          C       0.41865   0.15023   0.20095  -0.06212
C          C       0.40616   0.04756   0.27648   0.55819
C          C       0.52309   0.16123   0.13988  -0.04405
C          C       0.52853   0.25787   0.06954  -0.07422
C          C       0.43095   0.34158   0.06606   0.07803
C          C       0.63873   0.28022   0.00344   0.56456
C          C       0.76054   0.67357   0.30656   0.08292
C          C       0.84976   0.58137   0.29903  -0.06161
C          C       0.95242   0.59385   0.22352   0.55734
C          C       0.83877   0.47692   0.36014  -0.04424
C          C       0.74215   0.47145   0.43044  -0.07367
C          C       0.65847   0.56903   0.43388   0.07747
C          C       0.71976   0.36124   0.49657   0.56419
N          N       0.66702   0.66524   0.87176  -0.20412
N          N       0.33470   0.33296   0.62830  -0.20450
N          N       0.33298   0.33476   0.12824  -0.20409
N          N       0.66529   0.66703   0.37170  -0.20441
O          O       0.70072   0.96094   0.68172  -0.52498
O          O       0.49881   0.02032   0.70772  -0.52251
O          O       0.26493   0.78704   0.98026  -0.47080
O          O       0.37313   0.63263   0.06226  -0.55284
O          O       0.03905   0.29927   0.81831  -0.52464
O          O       0.97972   0.50115   0.79222  -0.52239
O          O       0.21301   0.73509   0.51971  -0.47065
O          O       0.36735   0.62690   0.43775  -0.55255
O          O       0.29927   0.03906   0.31828  -0.52498
O          O       0.50119   0.97967   0.29227  -0.52257
O          O       0.73506   0.21296   0.01973  -0.47075
O          O       0.62686   0.36737   0.93774  -0.55283
O          O       0.96094   0.70073   0.18169  -0.52472
O          O       0.02027   0.49884   0.20778  -0.52236
O          O       0.78699   0.26491   0.48028  -0.47069
O          O       0.63265   0.37310   0.56225  -0.55254

