data_crystal

_audit_creation_method 'AiiDA-DDEC plugin'

_cell_length_a         5.02212
_cell_length_b        18.47915
_cell_length_c        18.78785

_cell_angle_alpha     115.73940
_cell_angle_beta     94.36875
_cell_angle_gamma     89.29069

_symmetry_space_group_name_Hall 'P 1'
_symmetry_space_group_name_H-M  'P 1'

loop_
_symmetry_equiv_pos_as_xyz
 'x,y,z'

loop_
_atom_site_label
_atom_site_type_symbol
_atom_site_fract_x
_atom_site_fract_y
_atom_site_fract_z
_atom_site_charge
Mn         Mn      0.74093   0.75386   0.45437   0.91306
Mn         Mn      0.12689   0.72483   0.30635   1.10823
Mn         Mn      0.59224   0.58933   0.26786   1.06618
Mn         Mn      0.11366   0.37834   0.64510   0.90399
Mn         Mn      0.73164   0.19906   0.57807   0.98387
Mn         Mn      0.58724   0.36720   0.74636   0.96333
P          P       0.04712   0.52570   0.20190   1.16299
P          P       0.31978   0.67270   0.45254   1.15352
P          P       0.61371   0.80716   0.32742   1.14565
P          P       0.12585   0.47934   0.80823   1.16859
P          P       0.58516   0.33215   0.53332   1.21166
P          P       0.27210   0.19067   0.64640   1.18744
H          H       0.24391   0.52697   0.06232   0.08287
H          H       0.41577   0.62165   0.10701   0.13165
H          H       0.89214   0.42098   0.04856   0.13464
H          H       0.54070   0.40347   0.02377   0.12585
H          H       0.56634   0.52599   0.45896   0.06583
H          H       0.77664   0.49881   0.37930   0.14048
H          H       0.11778   0.64334   0.60752   0.12657
H          H       0.79630   0.59728   0.59712   0.10768
H          H       0.22483   0.98827   0.56634   0.08438
H          H       0.44504   0.91477   0.57746   0.13051
H          H       0.32309   0.92764   0.35946   0.14489
H          H       0.16866   0.99750   0.44466   0.08362
H          H       0.75809   0.37668   0.90091   0.11891
H          H       0.92789   0.47214   0.94631   0.09196
H          H       0.62589   0.59504   0.98312   0.13711
H          H       0.27395   0.57632   0.95875   0.13423
H          H       0.15789   0.52240   0.63701   0.13436
H          H       0.31430   0.50281   0.54777   0.08966
H          H       0.03369   0.40783   0.41802   0.13549
H          H       0.69198   0.38798   0.42716   0.13522
H          H       0.56949   0.06420   0.41992   0.14238
H          H       0.78169   0.98899   0.42964   0.09193
H          H       0.84309   0.98736   0.56255   0.06863
H          H       0.66093   0.05745   0.64142   0.14636
C          C       0.76777   0.55761   0.16006  -0.52573
C          C       0.42816   0.55946   0.06217  -0.09529
C          C       0.71179   0.44143   0.02674  -0.12166
C          C       0.16524   0.59312   0.45879  -0.26676
C          C       0.77214   0.50919   0.44121  -0.09631
C          C       0.99329   0.58925   0.57328  -0.09883
C          C       0.54055   0.84329   0.43034  -0.48224
C          C       0.41956   0.95687   0.55068  -0.09044
C          C       0.35649   0.96419   0.42359  -0.08510
C          C       0.41170   0.44341   0.84729  -0.44346
C          C       0.74506   0.43896   0.94567  -0.11670
C          C       0.45621   0.55704   0.98098  -0.13490
C          C       0.87643   0.39790   0.56231  -0.41807
C          C       0.12256   0.51530   0.57592  -0.11471
C          C       0.85490   0.43310   0.44967  -0.11603
C          C       0.43901   0.13364   0.56159  -0.50243
C          C       0.59365   0.02276   0.44752  -0.08758
C          C       0.64770   0.01877   0.57748  -0.06767
N          N       0.65925   0.52369   0.08609   0.15296
N          N       0.95041   0.57844   0.49072   0.06521
N          N       0.41480   0.91114   0.46352   0.15564
N          N       0.51547   0.47535   0.92064   0.20571
N          N       0.93372   0.44711   0.53227   0.18074
N          N       0.61404   0.07050   0.53509  -0.00020
O          O       0.22522   0.45782   0.15778  -0.69390
O          O       0.90827   0.52652   0.27418  -0.68468
O          O       0.22414   0.60875   0.23586  -0.75197
O          O       0.49307   0.72722   0.52799  -0.70047
O          O       0.11924   0.72754   0.42822  -0.74052
O          O       0.51849   0.63675   0.38604  -0.71062
O          O       0.82713   0.86530   0.33078  -0.65880
O          O       0.35824   0.78900   0.27130  -0.66326
O          O       0.73365   0.72246   0.31389  -0.79107
O          O       0.95984   0.54177   0.86600  -0.68952
O          O       0.25246   0.49148   0.74171  -0.68627
O          O       0.97452   0.39248   0.75898  -0.73638
O          O       0.37392   0.34314   0.47852  -0.68848
O          O       0.69402   0.24520   0.50545  -0.64665
O          O       0.50572   0.36009   0.62234  -0.74942
O          O       0.11983   0.14664   0.68101  -0.68534
O          O       0.51969   0.24697   0.69641  -0.68046
O          O       0.09272   0.24362   0.61457  -0.69201

