data_crystal

_audit_creation_method 'AiiDA-DDEC plugin'

_cell_length_a        10.52800
_cell_length_b        11.43267
_cell_length_c        13.02387

_cell_angle_alpha     107.78462
_cell_angle_beta     89.71170
_cell_angle_gamma     93.38109

_symmetry_space_group_name_Hall 'P 1'
_symmetry_space_group_name_H-M  'P 1'

loop_
_symmetry_equiv_pos_as_xyz
 'x,y,z'

loop_
_atom_site_label
_atom_site_type_symbol
_atom_site_fract_x
_atom_site_fract_y
_atom_site_fract_z
_atom_site_charge
Pr         Pr      0.48446   0.44203   0.34844   1.97651
Pr         Pr      0.51877   0.56122   0.65596   1.99256
H          H       0.39713   0.10574   0.27114   0.10770
H          H       0.27386   0.77055   0.52520   0.10931
H          H       0.24548   0.29479   0.40868   0.09762
H          H       0.31022   0.91921   0.30856   0.10079
H          H       0.07523   0.87669   0.57181   0.09958
H          H       0.15979   0.14540   0.24272   0.11245
H          H       0.30857   0.71503   0.16599   0.10678
H          H       0.07205   0.10166   0.59580   0.11006
H          H       0.93755   0.15817   0.18020   0.11897
H          H       0.39716   0.69785   0.98699   0.11671
H          H       0.26682   0.21983   0.57122   0.11227
H          H       0.80606   0.32213   0.28121   0.12619
H          H       0.60455   0.89765   0.73203   0.10615
H          H       0.72721   0.22996   0.47717   0.11026
H          H       0.75785   0.70534   0.59378   0.09622
H          H       0.68972   0.08448   0.69422   0.10013
H          H       0.92462   0.12269   0.42761   0.09881
H          H       0.84379   0.85531   0.75948   0.11378
H          H       0.69115   0.28875   0.83640   0.10661
H          H       0.92771   0.89771   0.40344   0.11081
H          H       0.06599   0.84222   0.82161   0.11885
H          H       0.60345   0.30573   0.01571   0.11380
H          H       0.73365   0.78071   0.43079   0.11216
H          H       0.19709   0.67769   0.72132   0.12478
C          C       0.49528   0.24010   0.16487   0.59729
C          C       0.50664   0.74118   0.48277   0.67264
C          C       0.26215   0.49297   0.56845   0.63155
C          C       0.49760   0.11748   0.08064  -0.10878
C          C       0.50307   0.87462   0.49122  -0.12921
C          C       0.12707   0.49370   0.53551  -0.12308
C          C       0.44650   0.01204   0.10458   0.05409
C          C       0.38821   0.93313   0.51825   0.05259
C          C       0.07880   0.40440   0.44089   0.05031
C          C       0.39535   0.01774   0.20784  -0.13568
C          C       0.27317   0.86840   0.53429  -0.13740
C          C       0.15104   0.30496   0.38021  -0.17133
C          C       0.34732   0.91322   0.22910  -0.07882
C          C       0.16201   0.92754   0.56017  -0.08423
C          C       0.10203   0.21930   0.28807  -0.05717
C          C       0.34764   0.79688   0.14829  -0.08261
C          C       0.16013   0.05562   0.57319  -0.08234
C          C       0.97645   0.22690   0.25249  -0.07259
C          C       0.39759   0.78708   0.04851  -0.14138
C          C       0.26891   0.12138   0.55871  -0.13363
C          C       0.90231   0.31932   0.30971  -0.13010
C          C       0.44941   0.89329   0.02319   0.05438
C          C       0.38593   0.06304   0.52989   0.05690
C          C       0.95033   0.41118   0.40500   0.05570
C          C       0.50961   0.76286   0.83969   0.59740
C          C       0.49573   0.25970   0.51812   0.67259
C          C       0.74181   0.50820   0.43268   0.62713
C          C       0.50538   0.88584   0.92287  -0.10943
C          C       0.49867   0.12704   0.51305  -0.12767
C          C       0.87649   0.50676   0.46678  -0.11829
C          C       0.55594   0.99129   0.89873   0.05308
C          C       0.61337   0.06825   0.48595   0.05235
C          C       0.92456   0.59575   0.56161   0.04784
C          C       0.60630   0.98572   0.79527  -0.13422
C          C       0.72806   0.13229   0.46854  -0.13748
C          C       0.85228   0.69525   0.62227  -0.16897
C          C       0.65320   0.09044   0.77379  -0.07907
C          C       0.83845   0.07239   0.44097  -0.08360
C          C       0.90132   0.78115   0.71420  -0.05822
C          C       0.65263   0.20687   0.85439  -0.08443
C          C       0.84035   0.94437   0.42789  -0.08226
C          C       0.02691   0.77342   0.74958  -0.07239
C          C       0.60354   0.21642   0.95441  -0.13789
C          C       0.73197   0.87929   0.44398  -0.13354
C          C       0.10101   0.68083   0.69265  -0.13119
C          C       0.55284   0.11005   0.98004   0.05444
C          C       0.61566   0.93842   0.47413   0.05654
C          C       0.05302   0.58893   0.59751   0.05720
O          O       0.38926   0.29168   0.19189  -0.63836
O          O       0.48166   0.66152   0.39191  -0.63174
O          O       0.35000   0.51448   0.50402  -0.76416
O          O       0.59974   0.29238   0.21120  -0.60661
O          O       0.53601   0.71561   0.56858  -0.66380
O          O       0.29327   0.47992   0.65725  -0.55072
O          O       0.61618   0.71288   0.81323  -0.63879
O          O       0.52466   0.34245   0.60681  -0.64476
O          O       0.65298   0.48616   0.49619  -0.76419
O          O       0.40561   0.70808   0.79370  -0.61370
O          O       0.46368   0.28116   0.43132  -0.65155
O          O       0.71258   0.52189   0.34383  -0.54849

