data_crystal

_audit_creation_method 'AiiDA-DDEC plugin'

_cell_length_a        11.92849
_cell_length_b        12.10587
_cell_length_c        12.10468

_cell_angle_alpha     75.90722
_cell_angle_beta     60.43189
_cell_angle_gamma     60.44390

_symmetry_space_group_name_Hall 'P 1'
_symmetry_space_group_name_H-M  'P 1'

loop_
_symmetry_equiv_pos_as_xyz
 'x,y,z'

loop_
_atom_site_label
_atom_site_type_symbol
_atom_site_fract_x
_atom_site_fract_y
_atom_site_fract_z
_atom_site_charge
Al         Al      0.19208  -0.00001   0.61605   1.68371
Al         Al      0.80806  -0.00003   0.38385   1.68246
Al         Al      0.94199   0.11614   0.49993   1.68268
Al         Al      0.55814   0.88377   0.50008   1.68400
H          H       0.64758   0.05901   0.80350   0.12250
H          H       0.50993   0.94105   0.19655   0.11944
H          H       0.45646   0.30362   0.44094   0.12239
H          H       0.20106   0.69660   0.55874   0.12250
H          H       0.10244   0.69649   0.44106   0.12348
H          H       0.24013   0.30349   0.55887   0.12240
H          H       0.29343   0.05913   0.19647   0.12293
H          H       0.54908   0.94112   0.80345   0.12327
H          H       0.18919   0.93580   0.43600   0.41840
H          H       0.56087   0.06398   0.56401   0.41863
H          H       0.87507   0.93581   0.56395   0.41877
H          H       0.37537   0.06388   0.43594   0.41906
H          H       0.88998  -0.00017  -0.00012   0.14161
H          H       0.63988   0.49984   0.49998   0.14041
H          H       0.86007   0.50011   0.50020   0.14227
H          H       0.11018  -0.00001   0.00015   0.14098
C          C       0.89114   0.04871   0.76568   0.63633
C          C       0.78120   0.02744   0.88869  -0.04282
C          C       0.66152   0.03107   0.89001  -0.13054
C          C       0.70564   0.95112   0.23424   0.63497
C          C       0.69744   0.97241   0.11124  -0.04035
C          C       0.58262   0.96884   0.10999  -0.13015
C          C       0.68978   0.26573   0.45112   0.63409
C          C       0.55864   0.38877   0.47237  -0.04412
C          C       0.44255   0.39008   0.46883  -0.13096
C          C       0.40675   0.73421   0.54877   0.63675
C          C       0.41991   0.61125   0.52740  -0.04480
C          C       0.30150   0.61000   0.53100  -0.13270
C          C       0.85907   0.73422   0.45122   0.63616
C          C       0.96889   0.61125   0.47259  -0.04238
C          C       0.08853   0.60998   0.46898  -0.13450
C          C       0.04447   0.26577   0.54878   0.63545
C          C       0.05260   0.38877   0.52758  -0.04296
C          C       0.16741   0.39005   0.53115  -0.13170
C          C       0.06016   0.04885   0.23423   0.63619
C          C       0.19137   0.02762   0.11125  -0.04247
C          C       0.30742   0.03120   0.10997  -0.13187
C          C       0.34340   0.95103   0.76581   0.63429
C          C       0.33021   0.97247   0.88877  -0.04144
C          C       0.44859   0.96890   0.89004  -0.13395
C          C       0.79882  -0.00008  -0.00007  -0.09429
C          C       0.56186   0.00000   0.00002   0.06207
C          C       0.54880   0.49995   0.49984  -0.08910
C          C       0.31184   0.50008   0.49990   0.06270
C          C       0.95124   0.50005   0.50010  -0.09271
C          C       0.18816   0.50001   0.50004   0.06513
C          C       0.20126   0.00011   0.00004  -0.09244
C          C       0.43818   0.00011  -0.00004   0.06394
O          O       0.84926   0.11037   0.68036  -0.61004
O          O       0.01788   0.00045   0.75467  -0.57535
O          O       0.64013   0.88941   0.31954  -0.60951
O          O       0.77307  -0.00062   0.24524  -0.57443
O          O       0.70952   0.18053   0.38940  -0.60839
O          O       0.76821   0.25466   0.49942  -0.57392
O          O       0.27943   0.81951   0.61032  -0.61066
O          O       0.52248   0.74525   0.50068  -0.57514
O          O       0.90109   0.81945   0.38954  -0.60969
O          O       0.73230   0.74523   0.49942  -0.57548
O          O       0.10999   0.18051   0.61048  -0.60981
O          O       0.97705   0.25479   0.50048  -0.57495
O          O       0.04018   0.11069   0.31946  -0.61059
O          O       0.98186   0.00042   0.24525  -0.57500
O          O       0.47073   0.88928   0.68059  -0.60949
O          O       0.22773  -0.00071   0.75467  -0.57414
O          O       0.12440   0.00108   0.50070  -1.01121
O          O       0.62584  -0.00098   0.49899  -1.01170
O          O       0.87481   0.00099   0.49913  -1.01184
O          O       0.37519  -0.00096   0.50109  -1.01233

