data_crystal

_audit_creation_method 'AiiDA-DDEC plugin'

_cell_length_a        10.97191
_cell_length_b        11.11258
_cell_length_c        11.11853

_cell_angle_alpha     73.41953
_cell_angle_beta     61.20726
_cell_angle_gamma     61.26591

_symmetry_space_group_name_Hall 'P 1'
_symmetry_space_group_name_H-M  'P 1'

loop_
_symmetry_equiv_pos_as_xyz
 'x,y,z'

loop_
_atom_site_label
_atom_site_type_symbol
_atom_site_fract_x
_atom_site_fract_y
_atom_site_fract_z
_atom_site_charge
Ni         Ni      0.44642   0.20231   0.64968   0.91563
Ni         Ni      0.05313   0.35055   0.79737   0.91722
Ni         Ni      0.94687   0.64945   0.20262   0.91714
Ni         Ni      0.55358   0.79769   0.35032   0.91567
H          H       0.41570   0.58788   0.48380   0.10564
H          H       0.71879   0.01488   0.44019   0.10722
H          H       0.91545   0.48402   0.58805   0.10446
H          H       0.92822   0.03280   0.21339   0.13722
H          H       0.78429   0.80535   0.08283   0.37633
H          H       0.21571   0.19465   0.91716   0.37632
H          H       0.71686   0.91707   0.19454   0.37832
H          H       0.21956   0.43980   0.01477   0.10638
H          H       0.57131   0.78707   0.96713   0.13770
H          H       0.28121   0.98513   0.55981   0.10725
H          H       0.78044   0.56020   0.98522   0.10639
H          H       0.28314   0.08293   0.80546   0.37831
H          H       0.07178   0.96721   0.78661   0.13720
H          H       0.42869   0.21293   0.03286   0.13774
H          H       0.58430   0.41212   0.51619   0.10555
H          H       0.08455   0.51598   0.41194   0.10446
C          C       0.76862   0.35437   0.31697  -0.10127
C          C       0.14594   0.88005   0.72269  -0.14510
C          C       0.64562   0.72301   0.88008  -0.14751
C          C       0.98736   0.25810   0.08798   0.59457
C          C       0.83854   0.55499   0.66871   0.07893
C          C       0.26864   0.31673   0.35439  -0.10262
C          C       0.26743   0.28060   0.49562   0.59878
C          C       0.73894   0.10812   0.40380   0.11749
C          C       0.37038   0.23062   0.24472   0.03149
C          C       0.76793   0.49546   0.28078   0.59793
C          C       0.73258   0.71940   0.50438   0.59881
C          C       0.87024   0.24477   0.23074   0.03035
C          C       0.23207   0.50454   0.71922   0.59793
C          C       0.23944   0.40344   0.10806   0.11989
C          C       0.26106   0.89188   0.59620   0.11748
C          C       0.48761   0.08814   0.25793   0.59137
C          C       0.12976   0.75523   0.76926   0.03033
C          C       0.73137   0.68327   0.64560  -0.10274
C          C       0.85407   0.11995   0.27731  -0.14505
C          C       0.16146   0.44501   0.33129   0.07878
C          C       0.35438   0.27699   0.11992  -0.14758
C          C       0.62962   0.76938   0.75528   0.03141
C          C       0.76056   0.59656   0.89194   0.11975
C          C       0.51239   0.91186   0.74207   0.59145
C          C       0.33879   0.66863   0.55469   0.07408
C          C       0.66121   0.33137   0.44531   0.07415
C          C       0.01265   0.74190   0.91201   0.59471
C          C       0.23138   0.64563   0.68302  -0.10133
N          N       0.64370   0.21246   0.48815  -0.24144
N          N       0.35630   0.78754   0.51185  -0.24130
N          N       0.14422   0.48784   0.21236  -0.24415
N          N       0.85578   0.51216   0.78764  -0.24418
O          O       0.93155   0.31798  -0.00233  -0.56466
O          O       0.87428   0.79622   0.93198  -0.50752
O          O       0.64243   0.59169   0.34569  -0.57710
O          O       0.60996   0.80846   0.49300  -0.51651
O          O       0.37413   0.93148   0.79653  -0.50576
O          O       0.85836   0.65435   0.40837  -0.57817
O          O       0.06845   0.68202   0.00233  -0.56464
O          O       0.56831   0.00223   0.68184  -0.56486
O          O       0.62587   0.06852   0.20347  -0.50568
O          O       0.75042   0.81250   0.18758  -0.80727
O          O       0.39004   0.19154   0.50700  -0.51649
O          O       0.14164   0.34565   0.59163  -0.57823
O          O       0.35757   0.40831   0.65430  -0.57703
O          O       0.10905   0.49360   0.80821  -0.51704
O          O       0.12572   0.20378   0.06801  -0.50744
O          O       0.24958   0.18750   0.81242  -0.80731
O          O       0.89095   0.50640   0.19178  -0.51695
O          O       0.43169  -0.00223   0.31816  -0.56489

