data_crystal

_audit_creation_method 'AiiDA-DDEC plugin'

_cell_length_a        12.88927
_cell_length_b        13.44270
_cell_length_c        13.53403

_cell_angle_alpha     63.78286
_cell_angle_beta     61.63662
_cell_angle_gamma     84.01619

_symmetry_space_group_name_Hall 'P 1'
_symmetry_space_group_name_H-M  'P 1'

loop_
_symmetry_equiv_pos_as_xyz
 'x,y,z'

loop_
_atom_site_label
_atom_site_type_symbol
_atom_site_fract_x
_atom_site_fract_y
_atom_site_fract_z
_atom_site_charge
Cu         Cu      0.91616   0.07042   0.96570   0.17961
Cu         Cu      0.08558   0.93318   0.03241   0.17218
Cu         Cu      0.00025   0.49799   0.50090   0.50134
Cu         Cu      0.49981   0.49983   0.00025   0.73315
H          H       0.94836   0.45637   0.75877   0.10358
H          H       0.73830   0.52081   0.57955   0.13952
H          H       0.76227   0.45152   0.95396   0.12356
H          H       0.05174   0.54353   0.24130   0.10733
H          H       0.26168   0.47934   0.42034   0.13589
H          H       0.23778   0.54827   0.04613   0.12610
W          W       0.88639   0.26196   0.52934   2.13902
W          W       0.97580   0.73066   0.77285   1.59898
W          W       0.83150   0.95487   0.73378   1.84469
W          W       0.98845   0.17595   0.73414   1.23881
W          W       0.88513   0.02419   0.27692   1.99283
W          W       0.84429   0.83933   0.59574   1.91790
W          W       0.11135   0.73886   0.47340   2.08408
W          W       0.02917   0.25527   0.24138   1.53698
W          W       0.16846   0.05247   0.27560   1.79232
W          W       0.00986   0.82647   0.26517   1.26917
W          W       0.12105   0.97968   0.71624   2.01148
W          W       0.14902   0.14880   0.40871   1.61588
C          C       0.86090   0.46896   0.76295   0.03381
C          C       0.74740   0.50743   0.66073   0.05526
C          C       0.64752   0.50781   0.76562   0.05324
C          C       0.76038   0.46643   0.86890   0.08648
C          C       0.52500   0.53372   0.77199   0.52069
C          C       0.13934   0.53153   0.23698   0.04834
C          C       0.25286   0.49333   0.33887   0.05856
C          C       0.35220   0.49197   0.23461   0.06333
C          C       0.23936   0.53305   0.13150   0.10331
C          C       0.47493   0.46622   0.22806   0.52252
N          N       0.85402   0.49000   0.65888  -0.15860
N          N       0.65654   0.48693   0.86824  -0.21428
N          N       0.14637   0.51192   0.34041  -0.14895
N          N       0.34360   0.51302   0.13178  -0.20675
O          O       0.88759   0.40578   0.48647  -0.76326
O          O       0.81464   0.09850   0.63691  -0.82254
O          O       0.87577   0.70487   0.72642  -0.80832
O          O       0.82096   0.94709   0.46796  -0.79004
O          O       0.72034   0.86744   0.73869  -0.79592
O          O       0.87009   0.81284   0.84700  -0.76146
O          O       0.03993   0.22948   0.51103  -0.83051
O          O       0.09884   0.83501   0.73374  -0.76455
O          O       0.85020   0.82754   0.34251  -0.67770
O          O       0.96746   0.02993   0.74319  -0.78740
O          O       0.95256   0.91629   0.60327  -0.79140
O          O       0.86518   0.23537   0.70285  -0.77600
O          O       0.89231   0.26459   0.38949  -0.77852
O          O       0.87537   0.05178   0.14589  -0.62569
O          O       0.44492   0.53568   0.87673  -0.55632
O          O       0.51224   0.55097   0.68194  -0.44484
O          O       0.86892   0.92692   0.02045  -0.42032
O          O       0.11483   0.59836   0.51152  -0.74163
O          O       0.18289   0.90369   0.36195  -0.82619
O          O       0.13958   0.30959   0.25843  -0.76650
O          O       0.18903   0.04994   0.52833  -0.77875
O          O       0.28695   0.13660   0.26071  -0.71808
O          O       0.13374   0.17912   0.14985  -0.75954
O          O       0.95956   0.77150   0.48313  -0.86398
O          O       0.89313   0.16088   0.27068  -0.73862
O          O       0.14615   0.16715   0.66391  -0.67886
O          O       0.02991   0.96928   0.25861  -0.73517
O          O       0.03006   0.09329   0.38984  -0.78317
O          O       0.13461   0.76436   0.29154  -0.76579
O          O       0.10068   0.73448   0.61994  -0.79136
O          O       0.12382   0.94234   0.85465  -0.61381
O          O       0.55528   0.46458   0.12304  -0.55734
O          O       0.48793   0.44926   0.31784  -0.44399
O          O       0.13114   0.07456   0.97960  -0.42378

