data_crystal

_audit_creation_method 'AiiDA-DDEC plugin'

_cell_length_a         4.71954
_cell_length_b        10.85377
_cell_length_c        14.91383

_cell_angle_alpha     81.98483
_cell_angle_beta     79.07472
_cell_angle_gamma     85.35732

_symmetry_space_group_name_Hall 'P 1'
_symmetry_space_group_name_H-M  'P 1'

loop_
_symmetry_equiv_pos_as_xyz
 'x,y,z'

loop_
_atom_site_label
_atom_site_type_symbol
_atom_site_fract_x
_atom_site_fract_y
_atom_site_fract_z
_atom_site_charge
Ca         Ca      0.00000   0.00000   0.00000   1.39565
H          H       0.91385   0.72826   0.48839   0.11772
H          H       0.57011   0.51779   0.64040   0.09735
H          H       0.69067   0.61679   0.76858   0.11427
H          H       0.86404   0.79054   0.61845   0.10579
H          H       0.62352   0.28159   0.57491   0.10303
H          H       0.79096   0.16738   0.71659   0.11444
H          H       0.01982   0.30381   0.88320   0.11697
H          H       0.86460   0.42531   0.74308   0.10754
H          H       0.62474   0.79608   0.94319   0.36281
H          H       0.98546   0.88733   0.74827   0.12152
H          H       0.08616   0.27174   0.51161   0.11782
H          H       0.42990   0.48220   0.35960   0.09727
H          H       0.30934   0.38320   0.23142   0.11424
H          H       0.13597   0.20946   0.38155   0.10587
H          H       0.37649   0.71841   0.42509   0.10298
H          H       0.20904   0.83262   0.28340   0.11430
H          H       0.98019   0.69619   0.11680   0.11702
H          H       0.13540   0.57469   0.25692   0.10765
H          H       0.37527   0.20392   0.05681   0.36287
H          H       0.01454   0.11267   0.25172   0.12168
C          C       0.94467   0.62730   0.49584  -0.17506
C          C       0.09361   0.56681   0.56388   0.02464
C          C       0.14358   0.43494   0.56903   0.04052
C          C       0.19586   0.63959   0.62609   0.06115
C          C       0.44389   0.59954   0.66267  -0.14071
C          C       0.52316   0.65841   0.73144  -0.08189
C          C       0.34787   0.76024   0.76384  -0.06421
C          C       0.03642   0.74910   0.65356  -0.12393
C          C       0.39592   0.81347   0.84522   0.59775
C          C       0.23740   0.35963   0.65025   0.07540
C          C       0.49527   0.28737   0.64275  -0.16322
C          C       0.59479   0.22752   0.72139  -0.07464
C          C       0.41681   0.23351   0.80845  -0.06401
C          C       0.14973   0.29997   0.81531  -0.06346
C          C       0.05645   0.36292   0.73673  -0.13409
C          C       0.50829   0.16772   0.89309   0.58886
C          C       0.11329   0.80743   0.72262  -0.08685
C          C       0.05534   0.37269   0.50416  -0.17516
C          C       0.90639   0.43319   0.43612   0.02469
C          C       0.85643   0.56506   0.43097   0.04046
C          C       0.80415   0.36041   0.37391   0.06102
C          C       0.55612   0.40046   0.33733  -0.14073
C          C       0.47685   0.34159   0.26856  -0.08180
C          C       0.65213   0.23975   0.23616  -0.06430
C          C       0.96358   0.25089   0.34643  -0.12395
C          C       0.60409   0.18653   0.15477   0.59790
C          C       0.76261   0.64037   0.34975   0.07555
C          C       0.50474   0.71263   0.35725  -0.16348
C          C       0.40522   0.77248   0.27860  -0.07451
C          C       0.58320   0.76648   0.19155  -0.06410
C          C       0.85027   0.70003   0.18468  -0.06337
C          C       0.94355   0.63708   0.26326  -0.13410
C          C       0.49171   0.83227   0.10691   0.58891
C          C       0.88671   0.19257   0.27738  -0.08688
O          O       0.75615   0.11307   0.88796  -0.58596
O          O       0.31789   0.16722   0.96907  -0.65953
O          O       0.23670   0.90144   0.87567  -0.57781
O          O       0.61164   0.75830   0.88352  -0.45227
O          O       0.24386   0.88693   0.11203  -0.58617
O          O       0.68211   0.83278   0.03093  -0.65929
O          O       0.76331   0.09856   0.12433  -0.57775
O          O       0.38837   0.24170   0.11648  -0.45242

