data_crystal

_audit_creation_method 'AiiDA-DDEC plugin'

_cell_length_a         9.52588
_cell_length_b         9.53995
_cell_length_c        17.31543

_cell_angle_alpha     90.00371
_cell_angle_beta     89.99955
_cell_angle_gamma     120.24345

_symmetry_space_group_name_Hall 'P 1'
_symmetry_space_group_name_H-M  'P 1'

loop_
_symmetry_equiv_pos_as_xyz
 'x,y,z'

loop_
_atom_site_label
_atom_site_type_symbol
_atom_site_fract_x
_atom_site_fract_y
_atom_site_fract_z
_atom_site_charge
Ce         Ce      0.66644   0.33283   0.24974   1.37540
Ce         Ce      0.33184   0.66552   0.74995   1.43145
Ce         Ce     -0.00068  -0.00167   0.00085   1.17317
Ce         Ce     -0.00038  -0.00110   0.50106   1.10269
H          H       0.43423   0.01742   0.08526   0.10685
H          H       0.50818   0.18279   0.01925   0.08067
H          H       0.98274   0.41704   0.08529   0.13128
H          H       0.81745   0.32519   0.01922   0.10831
H          H       0.58272   0.56538   0.08530   0.11186
H          H       0.67452   0.49195   0.01923   0.08532
H          H       0.43473   0.01752   0.41480   0.12076
H          H       0.50867   0.18286   0.48075   0.07745
H          H       0.98274   0.41745   0.41472   0.14195
H          H       0.81714   0.32544   0.48066   0.10316
H          H       0.58211   0.56498   0.41482   0.12367
H          H       0.67392   0.49151   0.48089   0.08471
H          H       0.01731   0.43416   0.91480   0.13397
H          H       0.18290   0.50841   0.98066   0.11526
H          H       0.41746   0.98308   0.91486   0.10914
H          H       0.32540   0.81761   0.98084   0.08601
H          H       0.56580   0.58281   0.91483   0.10858
H          H       0.49204   0.67432   0.98093   0.08335
H          H       0.01759   0.43480   0.58530   0.13818
H          H       0.18306   0.50881   0.51931   0.10626
H          H       0.41781   0.98279   0.58528   0.12893
H          H       0.32590   0.81753   0.51921   0.09611
H          H       0.56495   0.58227   0.58528   0.11499
H          H       0.49121   0.67378   0.51915   0.07902
C          C       0.34959   0.18553   0.10674   0.62434
C          C       0.40033   0.09439   0.05206  -0.14618
C          C       0.81426   0.16387   0.10679   0.61780
C          C       0.90560   0.30588   0.05196  -0.16227
C          C       0.83601   0.64998   0.10700   0.60522
C          C       0.69389   0.59933   0.05207  -0.12823
C          C       0.34948   0.18514   0.39347   0.54820
C          C       0.40077   0.09436   0.44801  -0.11026
C          C       0.81456   0.16410   0.39333   0.58719
C          C       0.90555   0.30631   0.44804  -0.12992
C          C       0.83577   0.65031   0.39347   0.60451
C          C       0.69317   0.59891   0.44809  -0.12631
C          C       0.18576   0.34982   0.89325   0.61933
C          C       0.09447   0.40043   0.94799  -0.11531
C          C       0.16388   0.81408   0.89324   0.61491
C          C       0.30613   0.90567   0.94811  -0.13795
C          C       0.65015   0.83589   0.89333   0.62316
C          C       0.59952   0.69372   0.94807  -0.14067
C          C       0.18529   0.34983   0.60655   0.59619
C          C       0.09441   0.40087   0.55195  -0.17059
C          C       0.16428   0.81417   0.60661   0.59249
C          C       0.30661   0.90567   0.55188  -0.15990
C          C       0.64955   0.83525   0.60671   0.58914
C          C       0.59875   0.69311   0.55198  -0.10899
O          O       0.45150   0.26539   0.16007  -0.62195
O          O       0.21600   0.17919   0.09525  -0.53443
O          O       0.73483   0.18574   0.16018  -0.53025
O          O       0.82040   0.03656   0.09540  -0.46969
O          O       0.81331   0.54815   0.16027  -0.63039
O          O       0.96411   0.78360   0.09586  -0.53690
O          O       0.45090   0.26475   0.33987  -0.58339
O          O       0.21602   0.17854   0.40557  -0.55068
O          O       0.73508   0.18591   0.33981  -0.52129
O          O       0.82118   0.03739   0.40504  -0.45725
O          O       0.81402   0.54922   0.33990  -0.58879
O          O       0.96309   0.78403   0.40569  -0.51103
O          O       0.26589   0.45220   0.84010  -0.57706
O          O       0.17955   0.21652   0.90419  -0.41868
O          O       0.18580   0.73358   0.84037  -0.60430
O          O       0.03699   0.82123   0.90396  -0.53134
O          O       0.54770   0.81363   0.84028  -0.61781
O          O       0.78432   0.96324   0.90486  -0.53022
O          O       0.26559   0.45139   0.65992  -0.55830
O          O       0.17852   0.21627   0.59513  -0.40656
O          O       0.18557   0.73377   0.65975  -0.58124
O          O       0.03738   0.82110   0.59543  -0.50971
O          O       0.54771   0.81344   0.65998  -0.61242
O          O       0.78365   0.96257   0.59507  -0.52625
O          O       0.27029  -0.00028  -0.00001  -0.16126
O          O      -0.00003   0.27039   0.00008  -0.02053
O          O       0.72988   0.72957   0.00012  -0.14885
O          O       0.27081  -0.00027   0.50011   0.07494
O          O      -0.00021   0.27089   0.49999   0.11466
O          O       0.72896   0.72893   0.50005  -0.09348

