data_crystal

_audit_creation_method 'AiiDA-DDEC plugin'

_cell_length_a         8.94335
_cell_length_b        11.14676
_cell_length_c        12.41735

_cell_angle_alpha     68.44790
_cell_angle_beta     86.20059
_cell_angle_gamma     79.59934

_symmetry_space_group_name_Hall 'P 1'
_symmetry_space_group_name_H-M  'P 1'

loop_
_symmetry_equiv_pos_as_xyz
 'x,y,z'

loop_
_atom_site_label
_atom_site_type_symbol
_atom_site_fract_x
_atom_site_fract_y
_atom_site_fract_z
_atom_site_charge
Dy         Dy      0.70202   0.97914   0.45014   2.13992
Dy         Dy      0.28602   0.02429   0.54842   2.14319
H          H       0.22119   0.63333   0.76482   0.12344
H          H      -0.00118   0.30249   0.84965   0.10947
H          H       0.85873   0.64646   0.55307   0.11754
H          H       0.96222   0.22245   0.68561   0.11289
H          H       0.78527   0.10857   0.63998   0.10372
H          H       0.42729   0.42439   0.61400   0.11446
H          H       0.60504   0.54451   0.65450   0.11913
H          H      -0.00224   0.33260   0.02369   0.10747
H          H       0.11864   0.21186   0.21321   0.11077
H          H       0.54156   0.31265   0.07189   0.11368
H          H       0.42391   0.43708   0.88060   0.10823
H          H       0.77921   0.36628   0.23572   0.12313
H          H       0.00082   0.69729   0.15037   0.10955
H          H       0.14166   0.35442   0.44704   0.11806
H          H       0.03764   0.77691   0.31487   0.11480
H          H       0.21425   0.89122   0.36024   0.10355
H          H       0.57252   0.57487   0.38582   0.11434
H          H       0.39469   0.45520   0.34527   0.11895
H          H       0.00211   0.66790   0.97580   0.10688
H          H       0.88223   0.78805   0.78655   0.11037
H          H       0.45850   0.68752   0.92787   0.11300
H          H       0.57599   0.56370   0.11838   0.10734
C          C       0.05604   0.79040   0.57828   0.66331
C          C       0.04295   0.65139   0.65112  -0.03447
C          C       0.13849   0.58374   0.74679  -0.13297
C          C       0.12004   0.45904   0.82239   0.06555
C          C       0.01051   0.40051   0.79325  -0.16152
C          C       0.91373   0.46435   0.69772   0.06729
C          C       0.93106   0.59184   0.62719  -0.12497
C          C       0.80089   0.39484   0.67281   0.08910
C          C       0.84545   0.26884   0.67113  -0.13617
C          C       0.74523   0.20381   0.64359  -0.07237
C          C       0.59309   0.25935   0.62079  -0.04413
C          C       0.54518   0.38182   0.62857  -0.08188
C          C       0.64693   0.44885   0.65204  -0.13900
C          C       0.48674   0.19050   0.58751   0.63042
C          C       0.20062   0.39132   0.93485   0.07980
C          C       0.11796   0.32680   0.03206  -0.14279
C          C       0.18420   0.25969   0.13910  -0.08323
C          C       0.33873   0.25306   0.15402  -0.04854
C          C       0.42242   0.31818   0.05905  -0.08628
C          C       0.35484   0.38800   0.95194  -0.13919
C          C       0.40668   0.17699   0.27098   0.65363
C          C       0.94468   0.20959   0.42144   0.66543
C          C       0.95745   0.34890   0.34890  -0.03695
C          C       0.86192   0.41617   0.25311  -0.13414
C          C       0.87989   0.54082   0.17733   0.06855
C          C       0.98929   0.59931   0.20658  -0.15989
C          C       0.08628   0.53583   0.30199   0.06816
C          C       0.06947   0.40843   0.37268  -0.12509
C          C       0.19904   0.60525   0.32680   0.08770
C          C       0.15455   0.73097   0.32898  -0.13438
C          C       0.25462   0.79607   0.35658  -0.07171
C          C       0.40688   0.74027   0.37902  -0.04194
C          C       0.45470   0.61782   0.37107  -0.08207
C          C       0.35292   0.55089   0.34760  -0.13805
C          C       0.51397   0.80834   0.41286   0.62135
C          C       0.79947   0.60867   0.06477   0.07664
C          C       0.88195   0.67352   0.96765  -0.14248
C          C       0.81597   0.74035   0.86028  -0.08560
C          C       0.66176   0.74737   0.84421  -0.04371
C          C       0.57793   0.68230   0.93955  -0.08937
C          C       0.64527   0.61259   0.04704  -0.14050
C          C       0.59335   0.82519   0.72707   0.65132
O          O       0.95861   0.85708   0.49764  -0.71561
O          O       0.16656   0.83654   0.60180  -0.70354
O          O       0.34360   0.21694   0.59765  -0.61133
O          O       0.54251   0.09977   0.54498  -0.80198
O          O       0.31115   0.15651   0.35599  -0.69753
O          O       0.55071   0.13798   0.28184  -0.67278
O          O       0.04452   0.14329   0.50148  -0.73095
O          O       0.83436   0.16284   0.40038  -0.68702
O          O       0.65704   0.78260   0.40189  -0.59954
O          O       0.45719   0.90153   0.45455  -0.81051
O          O       0.68913   0.84709   0.64154  -0.70172
O          O       0.44967   0.86301   0.71746  -0.66622

