data_crystal

_audit_creation_method 'AiiDA-DDEC plugin'

_cell_length_a         7.55176
_cell_length_b         7.55170
_cell_length_c        12.88324

_cell_angle_alpha     90.00000
_cell_angle_beta     90.00000
_cell_angle_gamma     90.00000

_symmetry_space_group_name_Hall 'P 1'
_symmetry_space_group_name_H-M  'P 1'

loop_
_symmetry_equiv_pos_as_xyz
 'x,y,z'

loop_
_atom_site_label
_atom_site_type_symbol
_atom_site_fract_x
_atom_site_fract_y
_atom_site_fract_z
_atom_site_charge
Mg         Mg      0.44530   0.11797   0.78178   1.55031
Mg         Mg      0.55470   0.88203   0.28178   1.55034
Mg         Mg      0.88203   0.44530   0.03178   1.55029
Mg         Mg      0.11797   0.55470   0.53178   1.55032
H          H       0.40697   0.09343   0.99199   0.35966
H          H       0.25729   0.84950   0.99698   0.08096
H          H       0.60895   0.71514   0.90740   0.13810
H          H       0.44401   0.57131   0.95413   0.14384
H          H       0.59303   0.90657   0.49199   0.35967
H          H       0.74271   0.15050   0.49698   0.08096
H          H       0.39105   0.28487   0.40740   0.13804
H          H       0.55599   0.42869   0.45413   0.14393
H          H       0.90657   0.40697   0.24199   0.35969
H          H       0.15050   0.25729   0.24698   0.08102
H          H       0.28486   0.60894   0.15740   0.13806
H          H       0.42869   0.44401   0.20413   0.14396
H          H       0.09343   0.59304   0.74199   0.35973
H          H       0.84950   0.74272   0.74698   0.08110
H          H       0.71514   0.39106   0.65740   0.13801
H          H       0.57131   0.55599   0.70413   0.14395
C          C       0.27187   0.79456   0.83348   0.56165
C          C       0.36007   0.84460   0.93657   0.11328
C          C       0.49941   0.70535   0.96308  -0.38296
C          C       0.57869   0.71824   0.07052   0.71170
C          C       0.72813   0.20544   0.33348   0.56155
C          C       0.63993   0.15540   0.43657   0.11325
C          C       0.50059   0.29465   0.46309  -0.38296
C          C       0.42131   0.28176   0.57052   0.71180
C          C       0.20543   0.27187   0.08348   0.56165
C          C       0.15540   0.36007   0.18657   0.11320
C          C       0.29465   0.49940   0.21309  -0.38295
C          C       0.28175   0.57868   0.32052   0.71179
C          C       0.79457   0.72813   0.58348   0.56169
C          C       0.84460   0.63994   0.68657   0.11309
C          C       0.70535   0.50060   0.71308  -0.38286
C          C       0.71825   0.42132   0.82052   0.71167
O          O       0.29082   0.90013   0.75635  -0.68942
O          O       0.19062   0.64825   0.83317  -0.51829
O          O       0.70816   0.61728   0.09386  -0.73138
O          O       0.50950   0.82565   0.13466  -0.68900
O          O       0.44136   0.01519   0.92706  -0.64849
O          O       0.70918   0.09987   0.25636  -0.68948
O          O       0.80938   0.35175   0.33317  -0.51809
O          O       0.29184   0.38272   0.59386  -0.73136
O          O       0.49050   0.17435   0.63465  -0.68910
O          O       0.55864   0.98481   0.42706  -0.64851
O          O       0.09988   0.29081   0.00636  -0.68947
O          O       0.35175   0.19061   0.08317  -0.51822
O          O       0.38272   0.70817   0.34386  -0.73146
O          O       0.17436   0.50951   0.38465  -0.68904
O          O       0.98481   0.44136   0.17706  -0.64856
O          O       0.90012   0.70919   0.50636  -0.68943
O          O       0.64825   0.80940   0.58317  -0.51819
O          O       0.61728   0.29183   0.84386  -0.73148
O          O       0.82564   0.49050   0.88465  -0.68895
O          O       0.01519   0.55864   0.67706  -0.64861

