data_crystal

_audit_creation_method 'AiiDA-DDEC plugin'

_cell_length_a         6.56423
_cell_length_b        10.06604
_cell_length_c        17.57041

_cell_angle_alpha     90.31508
_cell_angle_beta     90.02278
_cell_angle_gamma     91.35962

_symmetry_space_group_name_Hall 'P 1'
_symmetry_space_group_name_H-M  'P 1'

loop_
_symmetry_equiv_pos_as_xyz
 'x,y,z'

loop_
_atom_site_label
_atom_site_type_symbol
_atom_site_fract_x
_atom_site_fract_y
_atom_site_fract_z
_atom_site_charge
Er         Er      0.76767   0.75301   0.62877   2.05349
Er         Er      0.24264   0.74397   0.12533   2.05667
Er         Er      0.23235   0.24695   0.37106   2.05424
Er         Er      0.75735   0.25603   0.87467   2.05678
H          H       0.74261   0.21706   0.66858   0.11949
H          H       0.25401   0.27969   0.17056   0.11894
H          H       0.25734   0.78338   0.33158   0.11959
H          H       0.74607   0.71992   0.82954   0.11814
C          C       0.75864   0.60998   0.46635   0.55784
C          C       0.75267   0.49195   0.52038   0.05885
C          C       0.74417   0.35648   0.50015   0.07286
C          C       0.73620   0.30360   0.41937   0.69857
C          C       0.74476   0.29581   0.62632   0.09120
C          C       0.75174   0.42987   0.64778   0.07811
C          C       0.75584   0.48711   0.72697   0.66317
C          C       0.24925   0.88960   0.96373   0.55959
C          C       0.25204   0.00716   0.01910   0.05999
C          C       0.25550   0.14309   0.00066   0.06969
C          C       0.25536   0.19835   0.92083   0.69692
C          C       0.25413   0.20172   0.12737   0.09002
C          C       0.25096   0.06732   0.14718   0.07919
C          C       0.24799   0.01022   0.22599   0.66037
C          C       0.24118   0.38859   0.53339   0.56149
C          C       0.24727   0.50777   0.47981   0.05839
C          C       0.25587   0.64332   0.49995   0.07173
C          C       0.26383   0.69654   0.58059   0.69854
C          C       0.25528   0.70442   0.37377   0.09161
C          C       0.24832   0.57030   0.35228   0.07914
C          C       0.24420   0.51301   0.27299   0.66301
C          C       0.75075   0.11039   0.03619   0.55983
C          C       0.74798   0.99281   0.98082   0.05929
C          C       0.74454   0.85692  -0.00066   0.07007
C          C       0.74467   0.80172   0.07918   0.69690
C          C       0.74594   0.79807   0.87264   0.09104
C          C       0.74910   0.93246   0.85276   0.07828
C          C       0.75204   0.98958   0.77397   0.66123
N          N       0.75573   0.52394   0.59430  -0.36243
N          N       0.74050   0.25987   0.55268  -0.20089
N          N       0.25010   0.97392   0.09272  -0.36330
N          N       0.25646   0.23902   0.05423  -0.20376
N          N       0.24427   0.47621   0.40578  -0.36100
N          N       0.25954   0.74008   0.44746  -0.20116
N          N       0.74995   0.02595   0.90718  -0.36277
N          N       0.74360   0.76093   0.94582  -0.20386
O          O       0.90256   0.27970   0.38650  -0.66037
O          O       0.08393   0.22672   0.89351  -0.66211
O          O       0.43826   0.72691   0.60640  -0.66098
O          O       0.57491   0.77344   0.10946  -0.65728
O          O       0.09742   0.72032   0.61344  -0.66011
O          O       0.91608   0.77331   0.10650  -0.66191
O          O       0.56175   0.27316   0.39359  -0.66164
O          O       0.42511   0.22660   0.89054  -0.65719
O          O       0.77551   0.72461   0.50041  -0.70332
O          O       0.74761   0.58661   0.39713  -0.49492
O          O       0.75749   0.41242   0.78482  -0.68840
O          O       0.75779   0.61354   0.73100  -0.62125
O          O       0.24398   0.77454   0.99697  -0.70743
O          O       0.25198   0.91342   0.89455  -0.49460
O          O       0.24233   0.08604   0.28388  -0.68817
O          O       0.25107   0.88404   0.22952  -0.61664
O          O       0.22400   0.27479   0.49846  -0.70678
O          O       0.25236   0.40945   0.60282  -0.49552
O          O       0.24255   0.58769   0.21513  -0.68834
O          O       0.24223   0.38659   0.26900  -0.62143
O          O       0.75600   0.22551   0.00301  -0.70725
O          O       0.74805   0.08649   0.10535  -0.49420
O          O       0.75767   0.91377   0.71605  -0.68905
O          O       0.74895   0.11575   0.77042  -0.61620

