data_crystal

_audit_creation_method 'AiiDA-DDEC plugin'

_cell_length_a         4.01680
_cell_length_b         9.56605
_cell_length_c         9.55172

_cell_angle_alpha     87.72557
_cell_angle_beta     101.96105
_cell_angle_gamma     101.93821

_symmetry_space_group_name_Hall 'P 1'
_symmetry_space_group_name_H-M  'P 1'

loop_
_symmetry_equiv_pos_as_xyz
 'x,y,z'

loop_
_atom_site_label
_atom_site_type_symbol
_atom_site_fract_x
_atom_site_fract_y
_atom_site_fract_z
_atom_site_charge
Ag         Ag      0.42954   0.44456   0.41412  -0.13340
Ag         Ag      0.07097   0.58684   0.55508  -0.13179
H          H       0.38733   0.42782   0.85325   0.07255
H          H       0.25794   0.58430   0.89970   0.03895
H          H       0.96754   0.56966   0.88710   0.18867
H          H       0.83396   0.70395   0.94631   0.24758
H          H       0.11277   0.14593   0.57291   0.07273
H          H       0.24233   0.10034   0.41596   0.03881
H          H       0.53268   0.11261   0.43057   0.18852
H          H       0.66695   0.05453   0.29576   0.24762
H          H       0.62738   0.58205   0.14704   0.06284
H          H       0.74236   0.41914   0.11098   0.04445
H          H       0.03268   0.43927   0.11698   0.18783
H          H       0.18837   0.29660   0.09121   0.25875
H          H       0.87263   0.85342   0.41706   0.06324
H          H       0.75687   0.88888   0.58020   0.04452
H          H       0.46663   0.88294   0.56029   0.18802
H          H       0.31099   0.90859   0.70310   0.25969
C          C       0.47600   0.52258   0.92317   0.00107
C          C       0.02412   0.07663   0.47760   0.00190
C          C       0.53033   0.48313   0.08298  -0.00132
C          C       0.96922   0.91700   0.51632  -0.00182
N          N       0.74643   0.61825   0.87786  -0.52150
N          N       0.75413   0.12236   0.38212  -0.52136
N          N       0.26316   0.39552   0.13820  -0.44814
N          N       0.23618   0.86168   0.60409  -0.44840

