data_crystal

_audit_creation_method 'AiiDA-DDEC plugin'

_cell_length_a        11.40721
_cell_length_b        10.77859
_cell_length_c        10.77986

_cell_angle_alpha     99.95011
_cell_angle_beta     111.24223
_cell_angle_gamma     111.25740

_symmetry_space_group_name_Hall 'P 1'
_symmetry_space_group_name_H-M  'P 1'

loop_
_symmetry_equiv_pos_as_xyz
 'x,y,z'

loop_
_atom_site_label
_atom_site_type_symbol
_atom_site_fract_x
_atom_site_fract_y
_atom_site_fract_z
_atom_site_charge
Li         Li      0.92743   0.62360   0.77482   0.76684
Li         Li      0.57281   0.22513   0.37681   0.76711
Li         Li      0.07257   0.37640   0.22518   0.76684
Li         Li      0.42719   0.77487   0.62319   0.76714
H          H       0.90465   0.83134   0.96285   0.06610
H          H       0.87182   0.95202   0.87551   0.04464
H          H       0.82636   0.88832   0.62343   0.06697
H          H       0.82712   0.72592   0.54898   0.07509
H          H       0.15538   0.88657   0.81073   0.05946
H          H       0.15671   0.81456   0.64778   0.05615
H          H       0.11506   0.56384   0.58278   0.07629
H          H       0.07461   0.47148   0.69620   0.05660
H          H       0.75287   0.42311   0.84790   0.06713
H          H       0.83318   0.46114   0.03655   0.06351
H          H       0.08329   0.66256   0.17711   0.06116
H          H       0.15396   0.75088   0.07386   0.03161
H          H       0.59453   0.03683   0.16824   0.06499
H          H       0.62770   0.12458   0.04790   0.04444
H          H       0.67322   0.37624   0.11157   0.06713
H          H       0.67255   0.45098   0.27395   0.07533
H          H       0.34517   0.18874   0.11382   0.05929
H          H       0.34416   0.35213   0.18550   0.05666
H          H       0.38554   0.41721   0.43674   0.07664
H          H       0.42554   0.30336   0.52874   0.05637
H          H       0.74719   0.15172   0.57679   0.06646
H          H       0.66650   0.96308   0.53882   0.06398
H          H       0.41645   0.82282   0.33734   0.06164
H          H       0.34610   0.92629   0.24913   0.03187
H          H       0.09535   0.16867   0.03715   0.06622
H          H       0.12818   0.04799   0.12449   0.04445
H          H       0.17364   0.11168   0.37657   0.06680
H          H       0.17288   0.27409   0.45102   0.07519
H          H       0.84462   0.11343   0.18926   0.05936
H          H       0.84329   0.18545   0.35222   0.05611
H          H       0.88494   0.43616   0.41722   0.07622
H          H       0.92539   0.52852   0.30380   0.05684
H          H       0.24713   0.57689   0.15210   0.06706
H          H       0.16681   0.53886   0.96345   0.06358
H          H       0.91671   0.33745   0.82288   0.06112
H          H       0.84604   0.24913   0.92614   0.03147
H          H       0.40547   0.96318   0.83176   0.06515
H          H       0.37230   0.87542   0.95210   0.04435
H          H       0.32678   0.62377   0.88843   0.06711
H          H       0.32745   0.54903   0.72605   0.07515
H          H       0.65482   0.81127   0.88618   0.05935
H          H       0.65584   0.64787   0.81450   0.05648
H          H       0.61446   0.58280   0.56326   0.07648
H          H       0.57446   0.69665   0.47126   0.05647
H          H       0.25281   0.84829   0.42321   0.06637
H          H       0.33350   0.03693   0.46118   0.06425
H          H       0.58355   0.17719   0.66266   0.06177
H          H       0.65390   0.07371   0.75087   0.03173
C          C       0.84191   0.83956   0.86216  -0.01645
C          C       0.79728   0.77844   0.62085  -0.01000
C          C       0.18539   0.81550   0.75725  -0.01672
C          C       0.14083   0.57430   0.69374  -0.02412
C          C       0.85256   0.45551   0.94361  -0.02703
C          C       0.08850   0.64697   0.07591  -0.01565
C          C       0.65754   0.13775   0.16025  -0.01377
C          C       0.70231   0.37889   0.22144  -0.00985
C          C       0.31529   0.24271   0.18474  -0.01573
C          C       0.35964   0.30620   0.42603  -0.02426
C          C       0.64740   0.05613   0.54456  -0.02704
C          C       0.41148   0.92409   0.35299  -0.01575
C          C       0.15809   0.16045   0.13784  -0.01652
C          C       0.20272   0.22156   0.37915  -0.01011
C          C       0.81461   0.18451   0.24274  -0.01695
C          C       0.85917   0.42571   0.30626  -0.02426
C          C       0.14744   0.54450   0.05639  -0.02713
C          C       0.91150   0.35304   0.92408  -0.01562
C          C       0.34246   0.86226   0.83975  -0.01373
C          C       0.29769   0.62112   0.77856  -0.00999
C          C       0.68471   0.75729   0.81525  -0.01579
C          C       0.64036   0.69380   0.57397  -0.02427
C          C       0.35259   0.94388   0.45544  -0.02706
C          C       0.58852   0.07592   0.64701  -0.01558
Cl         Cl      0.75006   0.41471   0.58541  -0.79203
Cl         Cl      0.24993   0.58530   0.41459  -0.79206
O          O       0.88206   0.78275   0.76118  -0.31926
O          O       0.10106   0.67495   0.75203  -0.33043
O          O       0.94738   0.59811   0.95965  -0.33680
O          O       0.61726   0.23858   0.21714  -0.32019
O          O       0.39936   0.24789   0.32535  -0.33052
O          O       0.55260   0.04039   0.40208  -0.33739
O          O       0.11794   0.21726   0.23882  -0.31901
O          O       0.89894   0.32505   0.24797  -0.33031
O          O       0.05261   0.40189   0.04035  -0.33711
O          O       0.38274   0.76142   0.78285  -0.32018
O          O       0.60064   0.75212   0.67465  -0.33032
O          O       0.44740   0.95962   0.59792  -0.33756

