data_crystal

_audit_creation_method 'AiiDA-DDEC plugin'

_cell_length_a         7.84806
_cell_length_b        11.16051
_cell_length_c        13.03160

_cell_angle_alpha     103.88936
_cell_angle_beta     107.94342
_cell_angle_gamma     90.06007

_symmetry_space_group_name_Hall 'P 1'
_symmetry_space_group_name_H-M  'P 1'

loop_
_symmetry_equiv_pos_as_xyz
 'x,y,z'

loop_
_atom_site_label
_atom_site_type_symbol
_atom_site_fract_x
_atom_site_fract_y
_atom_site_fract_z
_atom_site_charge
Ni         Ni      0.13801   0.56044   0.61830   0.80114
Ni         Ni      0.51958   0.43986   0.38183   0.80228
H          H       0.66975   0.29469   0.64505   0.09139
H          H       0.73411   0.19321   0.80298   0.09722
H          H       0.64850   0.29510   0.97307   0.14364
H          H       0.10502   0.42520   0.78065   0.11937
H          H       0.11656   0.20765   0.79903   0.13794
H          H       0.11992   0.09665   0.45760   0.11522
H          H       0.10827   0.31957   0.45511   0.10531
H          H       0.26891   0.72745   0.51575   0.10603
H          H       0.28493   0.95250   0.52042   0.11095
H          H       0.97782   0.00848   0.75001   0.12653
H          H       0.99030   0.78302   0.74292   0.11666
H          H       0.02469   0.70590   0.35757   0.09142
H          H       0.93133   0.80496   0.19779   0.09765
H          H       0.67692   0.70003   0.02599   0.14254
H          H       0.32192   0.57491   0.21858   0.12001
H          H       0.31636   0.79267   0.20052   0.13786
H          H       0.66226   0.90358   0.54356   0.11455
H          H       0.65215   0.68058   0.54579   0.10544
H          H       0.75473   0.27344   0.48654   0.10629
H          H       0.76542   0.04826   0.48170   0.11085
H          H       0.22527   0.99157   0.24965   0.12643
H          H       0.24580   0.21710   0.25678   0.11669
C          C       0.53724   0.44511   0.90511   0.21988
C          C       0.49421   0.50215   0.81617  -0.13930
C          C       0.54497   0.44503   0.72182  -0.07007
C          C       0.63291   0.33527   0.71888  -0.12442
C          C       0.66941   0.27961   0.80720  -0.08325
C          C       0.62220   0.33503   0.90158  -0.17959
C          C       0.40273   0.62290   0.82801   0.58641
C          C       0.50792   0.49515   0.62134   0.57095
C          C       0.10595   0.34838   0.71134   0.10991
C          C       0.11217   0.22651   0.72013  -0.16473
C          C       0.11956   0.13175   0.62915   0.09454
C          C       0.11844   0.16592   0.53187  -0.18103
C          C       0.11135   0.28943   0.52905   0.09728
C          C       0.20592   0.79387   0.56545   0.10536
C          C       0.21235   0.91899   0.56819  -0.17569
C          C       0.12607   0.00023   0.63253   0.09703
C          C       0.04483   0.95033   0.69698  -0.17587
C          C       0.04774   0.82417   0.69196   0.10007
C          C       0.63086   0.55211   0.09515   0.21975
C          C       0.67559   0.49701   0.18529  -0.13915
C          C       0.82146   0.55512   0.28016  -0.07198
C          C       0.91318   0.66475   0.28330  -0.12087
C          C       0.86191   0.71878   0.19394  -0.08766
C          C       0.72082   0.66166   0.09852  -0.17819
C          C       0.57157   0.37655   0.17374   0.58642
C          C       0.88725   0.50607   0.38091   0.56890
C          C       0.39276   0.65176   0.28829   0.11056
C          C       0.39070   0.77372   0.27971  -0.16545
C          C       0.48962   0.86852   0.37129   0.09566
C          C       0.58589   0.83430   0.46893  -0.18130
C          C       0.58124   0.71072   0.47155   0.09648
C          C       0.64123   0.20680   0.43617   0.10398
C          C       0.64446   0.08169   0.43346  -0.17700
C          C       0.49286   0.00015   0.36822   0.09778
C          C       0.34623   0.04986   0.30326  -0.17595
C          C       0.35466   0.17600   0.30822   0.09994
N          N       0.10609   0.37986   0.61752  -0.23625
N          N       0.12188   0.74623   0.62441  -0.20926
N          N       0.48701   0.62027   0.38247  -0.23655
N          N       0.49769   0.25408   0.37620  -0.20902
O          O       0.22722   0.61238   0.78755  -0.60201
O          O       0.49744   0.72116   0.87763  -0.50059
O          O       0.37858   0.56374   0.59582  -0.54237
O          O       0.60966   0.46666   0.56094  -0.54634
O          O       0.43563   0.38768   0.21261  -0.60180
O          O       0.61699   0.27792   0.12619  -0.50249
O          O       0.78359   0.44069   0.40916  -0.54226
O          O       0.05194   0.53296   0.43964  -0.54431
O          O       0.48626   0.49738  -0.00044  -0.23958

