data_crystal

_audit_creation_method 'AiiDA-DDEC plugin'

_cell_length_a         5.75040
_cell_length_b         8.47711
_cell_length_c        15.73849

_cell_angle_alpha     89.82176
_cell_angle_beta     90.01202
_cell_angle_gamma     85.24880

_symmetry_space_group_name_Hall 'P 1'
_symmetry_space_group_name_H-M  'P 1'

loop_
_symmetry_equiv_pos_as_xyz
 'x,y,z'

loop_
_atom_site_label
_atom_site_type_symbol
_atom_site_fract_x
_atom_site_fract_y
_atom_site_fract_z
_atom_site_charge
Cd         Cd      0.64535   0.02607   0.68091   1.20870
Cd         Cd      0.85341   0.47371   0.18079   1.20799
Cd         Cd      0.35464   0.97394   0.31909   1.20876
Cd         Cd      0.14658   0.52629   0.81921   1.20796
P          P       0.66771   0.34226   0.80833   1.43459
P          P       0.83185   0.15927   0.30929   1.43594
P          P       0.33228   0.65775   0.19167   1.43440
P          P       0.16814   0.84073   0.69071   1.43572
H          H       0.54615   0.31343   0.93668   0.40544
H          H       0.95277   0.18955   0.43737   0.40674
H          H       0.45384   0.68657   0.06332   0.40535
H          H       0.04723   0.81045   0.56263   0.40680
C          C       0.40422   0.06841   0.50656   0.46993
C          C       0.09719   0.43299   0.00679   0.47278
C          C       0.59578   0.93159   0.49344   0.47020
C          C       0.90280   0.56701   0.99322   0.47276
O          O       0.53335   0.20872   0.77038  -0.67010
O          O       0.52328   0.50370   0.79653  -0.65540
O          O       0.91034   0.35109   0.77082  -0.64540
O          O       0.70009   0.30433   0.90816  -0.65661
O          O       0.39892   0.14405   0.57496  -0.41217
O          O       0.25808   0.09644   0.44615  -0.47889
O          O       0.96823   0.28967   0.26885  -0.66670
O          O       0.97636  -0.00230   0.30013  -0.66061
O          O       0.58963   0.15156   0.27119  -0.64647
O          O       0.79922   0.20025   0.40857  -0.65592
O          O       0.10379   0.35746   0.07531  -0.41003
O          O       0.24347   0.40660   0.94632  -0.48388
O          O       0.46664   0.79128   0.22962  -0.67013
O          O       0.47672   0.49630   0.20347  -0.65542
O          O       0.08966   0.64891   0.22918  -0.64529
O          O       0.29991   0.69568   0.09184  -0.65641
O          O       0.60107   0.85595   0.42504  -0.41230
O          O       0.74191   0.90356   0.55385  -0.47911
O          O       0.03177   0.71033   0.73116  -0.66652
O          O       0.02363   0.00231   0.69987  -0.66045
O          O       0.41036   0.84844   0.72881  -0.64655
O          O       0.20077   0.79975   0.59143  -0.65597
O          O       0.89620   0.64255   0.92469  -0.41003
O          O       0.75652   0.59340   0.05368  -0.48372

