data_crystal

_audit_creation_method 'AiiDA-DDEC plugin'

_cell_length_a         7.16132
_cell_length_b         7.16132
_cell_length_c        19.86193

_cell_angle_alpha     90.00000
_cell_angle_beta     90.00000
_cell_angle_gamma     90.00000

_symmetry_space_group_name_Hall 'P 1'
_symmetry_space_group_name_H-M  'P 1'

loop_
_symmetry_equiv_pos_as_xyz
 'x,y,z'

loop_
_atom_site_label
_atom_site_type_symbol
_atom_site_fract_x
_atom_site_fract_y
_atom_site_fract_z
_atom_site_charge
Zn         Zn     -0.00001   0.00001   0.72111   0.89205
Zn         Zn      0.50001   0.50000   0.22111   0.89214
Zn         Zn      0.49999   0.49999   0.77889   0.89229
Zn         Zn      0.00002  -0.00001   0.27889   0.89223
H          H       0.80266   0.23212   0.94989   0.14141
H          H       0.19734   0.76788   0.94989   0.14141
H          H       0.26788   0.30266   0.44989   0.14141
H          H       0.73212   0.69734   0.44989   0.14141
H          H       0.69734   0.73212   0.55010   0.14149
H          H       0.30266   0.26788   0.55010   0.14148
H          H       0.23212   0.80266   0.05011   0.14144
H          H       0.76788   0.19734   0.05011   0.14142
C          C       0.89039   0.12776   0.92591  -0.15826
C          C       0.89339   0.12271   0.85582   0.13467
C          C       0.78019   0.24827   0.81021   0.54454
C          C       0.10961   0.87225   0.92591  -0.15834
C          C       0.10660   0.87729   0.85582   0.13475
C          C       0.21980   0.75174   0.81021   0.54460
C          C       0.37224   0.39039   0.42591  -0.15817
C          C       0.37729   0.39340   0.35582   0.13470
C          C       0.25174   0.28020   0.31021   0.54445
C          C       0.62776   0.60961   0.42591  -0.15821
C          C       0.62271   0.60661   0.35582   0.13483
C          C       0.74826   0.71980   0.31021   0.54438
C          C       0.60961   0.62776   0.57409  -0.15827
C          C       0.60660   0.62271   0.64418   0.13496
C          C       0.71980   0.74826   0.68978   0.54455
C          C       0.39039   0.37225   0.57409  -0.15827
C          C       0.39339   0.37729   0.64418   0.13495
C          C       0.28020   0.25174   0.68978   0.54453
C          C       0.12776   0.89039   0.07409  -0.15821
C          C       0.12271   0.89340   0.14418   0.13485
C          C       0.24826   0.78019   0.18978   0.54451
C          C       0.87224   0.10961   0.07409  -0.15817
C          C       0.87729   0.10660   0.14418   0.13482
C          C       0.75174   0.21980   0.18978   0.54455
C          C      -0.00000   0.00000   0.96261   0.10206
C          C       0.50000   0.50000   0.46261   0.10210
C          C       0.50000   0.50000   0.53739   0.10207
C          C       0.00000  -0.00000   0.03739   0.10190
N          N      -0.00000   0.00000   0.82277  -0.24988
N          N       0.50000   0.50000   0.32277  -0.25011
N          N       0.50000   0.50000   0.67723  -0.25052
N          N       0.00000  -0.00000   0.17723  -0.25035
O          O       0.66729   0.36011   0.83989  -0.51186
O          O       0.80392   0.23170   0.74765  -0.52259
O          O       0.33270   0.63989   0.83989  -0.51192
O          O       0.19608   0.76831   0.74765  -0.52268
O          O       0.13989   0.16729   0.33989  -0.51173
O          O       0.26830   0.30392   0.24765  -0.52271
O          O       0.86012   0.83271   0.33989  -0.51168
O          O       0.73170   0.69608   0.24765  -0.52269
O          O       0.83271   0.86012   0.66011  -0.51163
O          O       0.69608   0.73170   0.75235  -0.52298
O          O       0.16729   0.13989   0.66011  -0.51162
O          O       0.30392   0.26831   0.75235  -0.52296
O          O       0.36011   0.66730   0.16011  -0.51167
O          O       0.23170   0.80392   0.25235  -0.52286
O          O       0.63989   0.33270   0.16011  -0.51171
O          O       0.76831   0.19608   0.25235  -0.52287

