data_crystal

_audit_creation_method 'AiiDA-DDEC plugin'

_cell_length_a         6.31858
_cell_length_b        10.63675
_cell_length_c        14.33273

_cell_angle_alpha     89.70022
_cell_angle_beta     89.95568
_cell_angle_gamma     111.45003

_symmetry_space_group_name_Hall 'P 1'
_symmetry_space_group_name_H-M  'P 1'

loop_
_symmetry_equiv_pos_as_xyz
 'x,y,z'

loop_
_atom_site_label
_atom_site_type_symbol
_atom_site_fract_x
_atom_site_fract_y
_atom_site_fract_z
_atom_site_charge
La         La      0.27723   0.49532   0.39750   1.65417
La         La      0.22370   0.00670   0.89633   1.65257
La         La      0.72634   0.50864   0.57505   1.75941
La         La      0.77807  -0.00197   0.07420   1.76234
H          H       0.84801   0.54382   0.26089   0.09407
H          H       0.71065   0.36493   0.28280   0.09941
H          H       0.48297   0.29887   0.17245   0.12126
H          H       0.37274   0.41074   0.11523   0.12232
H          H       0.65205   0.95514   0.76019   0.09336
H          H       0.78662   0.13447   0.77939   0.09842
H          H       0.01817   0.20502   0.67076   0.12046
H          H       0.13475   0.09699   0.61337   0.12290
H          H       0.29495   0.47473   0.78462   0.11713
H          H       0.29244   0.64155   0.76351   0.12936
H          H       0.68710   0.75465   0.82752   0.08865
H          H       0.72206   0.59774   0.84961   0.11516
H          H       0.20196   0.02754   0.28396   0.11686
H          H       0.21034   0.86221   0.26346   0.13006
H          H       0.80920   0.74452   0.32646   0.08464
H          H       0.77750   0.90223   0.34835   0.11425
C          C       0.69356   0.49082   0.39708  -0.13613
C          C       0.70067   0.46533   0.29351  -0.02408
C          C       0.38527   0.36469   0.18295  -0.14595
C          C       0.14581   0.27858   0.21554   0.63666
C          C       0.80808   0.01109   0.89548  -0.13753
C          C       0.79894   0.03476   0.79144  -0.02403
C          C       0.11692   0.13974   0.68141  -0.14554
C          C       0.35401   0.22678   0.71535   0.63624
C          C       0.23376   0.51539   0.64202   0.64307
C          C       0.34596   0.56118   0.73589  -0.13502
C          C       0.73058   0.67321   0.79523  -0.15443
C          C       0.97090   0.72998   0.75601   0.63234
C          C       0.26932   0.98957   0.14191   0.64298
C          C       0.15445   0.94170   0.23547  -0.13683
C          C       0.76806   0.82717   0.29411  -0.15203
C          C       0.52821   0.77261   0.25452   0.62996
O          O       0.52213   0.37502   0.44394  -0.72754
O          O       0.91700   0.50643   0.43090  -0.72174
O          O       0.49402   0.46905   0.24895  -0.24070
O          O       0.03249   0.18302   0.16168  -0.63203
O          O       0.07280   0.30605   0.29214  -0.58254
O          O       0.97847   0.12867   0.93985  -0.72796
O          O       0.58415   0.99406   0.93027  -0.72287
O          O       0.00563   0.03201   0.74571  -0.24053
O          O       0.46740   0.32363   0.66174  -0.62901
O          O       0.42606   0.19916   0.79228  -0.58260
O          O       0.35985   0.55631   0.56909  -0.66996
O          O       0.02716   0.43973   0.63958  -0.59095
O          O       0.58499   0.61270   0.71858  -0.22339
O          O       0.12820   0.79372   0.81336  -0.63407
O          O       0.00179   0.70665   0.67171  -0.59360
O          O       0.14495   0.95040   0.06878  -0.66945
O          O       0.47605   0.06502   0.13981  -0.59061
O          O       0.91579   0.88812   0.21753  -0.22382
O          O       0.36828   0.70671   0.31069  -0.63142
O          O       0.49957   0.79966   0.17063  -0.59169

