data_crystal

_audit_creation_method 'AiiDA-DDEC plugin'

_cell_length_a         7.00240
_cell_length_b        11.46278
_cell_length_c        17.45722

_cell_angle_alpha     89.88945
_cell_angle_beta     88.00873
_cell_angle_gamma     90.23607

_symmetry_space_group_name_Hall 'P 1'
_symmetry_space_group_name_H-M  'P 1'

loop_
_symmetry_equiv_pos_as_xyz
 'x,y,z'

loop_
_atom_site_label
_atom_site_type_symbol
_atom_site_fract_x
_atom_site_fract_y
_atom_site_fract_z
_atom_site_charge
Co         Co      0.00208   0.49737  -0.00080   0.98128
Co         Co     -0.00195   0.00008   0.50045   0.99210
Co         Co      0.49977   0.49958   0.00018   0.95903
Co         Co      0.49874  -0.00096   0.50038   0.97595
H          H       0.69719   0.45150   0.72393   0.09695
H          H       0.94636   0.70702   0.56949   0.11414
H          H       0.95253   0.48546   0.81421   0.11285
H          H       0.68865   0.56517   0.60195   0.11133
H          H       0.53678   0.81267   0.67972   0.11916
H          H       0.53247   0.70965   0.80706   0.12381
H          H       0.30084   0.95207   0.77491   0.09689
H          H       0.05192   0.20471   0.92982   0.11284
H          H       0.04476   0.98562   0.68472   0.11478
H          H       0.30818   0.06418   0.89722   0.11141
H          H       0.46584   0.31365   0.82003   0.12024
H          H       0.46590   0.20964   0.69340   0.12459
H          H       0.30352   0.54755   0.27622   0.09726
H          H       0.05262   0.29214   0.43035   0.11485
H          H       0.04760   0.51409   0.18574   0.11300
H          H       0.30996   0.43383   0.39824   0.11144
H          H       0.46196   0.18765   0.31906   0.12027
H          H       0.46698   0.29131   0.19217   0.12428
H          H       0.69926   0.04752   0.22489   0.09680
H          H       0.94795   0.79464   0.07009   0.11442
H          H       0.95492   0.01373   0.31524   0.11550
H          H       0.69112   0.93538   0.10267   0.11196
H          H       0.53268   0.68630   0.17905   0.11931
H          H       0.53346   0.78893   0.30592   0.12355
C          C       0.26145   0.63006   0.79239  -0.06328
C          C       0.41601   0.75869   0.69827  -0.09825
C          C       0.10169   0.67707   0.67223   0.04588
C          C       0.26014   0.75138   0.65170  -0.06343
C          C       0.10292   0.61348   0.74336   0.04719
C          C       0.26320   0.58020   0.87165   0.62000
C          C       0.26155   0.83204   0.58407   0.61987
C          C       0.41470   0.69999   0.76899  -0.10190
C          C       0.80785   0.51518   0.70993  -0.07882
C          C       0.94754   0.65851   0.62288  -0.13078
C          C       0.95220   0.53361   0.76065  -0.13198
C          C       0.80494   0.57875   0.64063  -0.08065
C          C       0.73421   0.12896   0.70757  -0.06415
C          C       0.58500   0.25889   0.80200  -0.09857
C          C       0.89682   0.17581   0.82722   0.04284
C          C       0.74037   0.25050   0.84893  -0.06160
C          C       0.89401   0.11235   0.75596   0.04811
C          C       0.72714   0.08011   0.62833   0.61969
C          C       0.74419   0.33157   0.91677   0.62458
C          C       0.58407   0.19986   0.73140  -0.09933
C          C       0.18950   0.01481   0.78893  -0.07708
C          C       0.05103   0.15698   0.87623  -0.12876
C          C       0.04457   0.03313   0.73844  -0.13019
C          C       0.19266   0.07761   0.85833  -0.08313
C          C       0.73705   0.37100   0.20734  -0.06366
C          C       0.58328   0.24148   0.30116  -0.09698
C          C       0.89707   0.32287   0.32762   0.04534
C          C       0.73892   0.24817   0.34807  -0.06138
C          C       0.89564   0.38692   0.25652   0.04701
C          C       0.73555   0.42040   0.12794   0.62489
C          C       0.73798   0.16669   0.41506   0.61299
C          C       0.58443   0.30066   0.23050  -0.10224
C          C       0.19157   0.48448   0.29013  -0.07869
C          C       0.05144   0.34088   0.37702  -0.12954
C          C       0.04704   0.46641   0.23942  -0.13178
C          C       0.19405   0.42086   0.35942  -0.08118
C          C       0.26458   0.87050   0.29228  -0.06494
C          C       0.41378   0.74063   0.19782  -0.09832
C          C       0.10235   0.82357   0.17247   0.04396
C          C       0.25859   0.74856   0.15094  -0.06287
C          C       0.10552   0.88735   0.24361   0.04772
C          C       0.27196   0.91990   0.37152   0.62144
C          C       0.25752   0.66661   0.08330   0.62124
C          C       0.41483   0.79960   0.26839  -0.09859
C          C       0.81074   0.98511   0.21074  -0.07780
C          C       0.94847   0.84274   0.12350  -0.12909
C          C       0.95532   0.96667   0.26135  -0.13084
C          C       0.80732   0.92247   0.14131  -0.08394
O          O       0.11010   0.58911   0.91228  -0.54825
O          O       0.41357   0.84339   0.54352  -0.54667
O          O       0.10838   0.89184   0.57494  -0.58350
O          O       0.41826   0.53410   0.89410  -0.56748
O          O       0.87972   0.08545   0.58657  -0.55544
O          O       0.59448   0.34432   0.95919  -0.55472
O          O       0.89785   0.38951   0.92421  -0.56864
O          O       0.56835   0.03942   0.60574  -0.56456
O          O       0.88729   0.41234   0.08719  -0.54862
O          O       0.58365   0.15357   0.45537  -0.54882
O          O       0.89303   0.10791   0.42525  -0.57884
O          O       0.57932   0.46528   0.10502  -0.56763
O          O       0.11987   0.91585   0.41395  -0.56144
O          O       0.40998   0.65451   0.04166  -0.55564
O          O       0.10535   0.60859   0.07473  -0.56605
O          O       0.43118   0.96004   0.39376  -0.56270

