data_crystal

_audit_creation_method 'AiiDA-DDEC plugin'

_cell_length_a        10.28820
_cell_length_b        10.28229
_cell_length_c        14.36494

_cell_angle_alpha     90.04144
_cell_angle_beta     90.01003
_cell_angle_gamma     90.27428

_symmetry_space_group_name_Hall 'P 1'
_symmetry_space_group_name_H-M  'P 1'

loop_
_symmetry_equiv_pos_as_xyz
 'x,y,z'

loop_
_atom_site_label
_atom_site_type_symbol
_atom_site_fract_x
_atom_site_fract_y
_atom_site_fract_z
_atom_site_charge
Ho         Ho      0.85424   0.85764   0.70585   2.17465
Ho         Ho      0.14574   0.14182   0.20595   2.17696
Ho         Ho      0.14200   0.85428   0.45594   2.17668
Ho         Ho      0.85799   0.13941   0.95602   2.17398
H          H       0.08056   0.45345   0.44244   0.13448
H          H       0.92339   0.45385   0.72067   0.13602
H          H       0.99579   0.09154   0.58020   0.10587
H          H       0.91896   0.54260   0.94197   0.13509
H          H       0.07587   0.54411   0.22051   0.13496
H          H       0.00474   0.90528   0.07904   0.10518
H          H       0.54661   0.08116   0.19243   0.13416
H          H       0.54537   0.92342   0.47046   0.13500
H          H       0.90776   0.99572   0.32998   0.10501
H          H       0.45280   0.91800   0.69167   0.13442
H          H       0.45540   0.07511   0.97008   0.13587
H          H       0.09237   0.00446   0.82999   0.10370
C          C       0.91001   0.19020   0.74191   0.66651
C          C       0.04567   0.40036   0.50300  -0.07081
C          C       0.08519   0.18954   0.41858   0.65757
C          C       0.95653   0.40072   0.65967  -0.07235
C          C       0.00149   0.46833   0.58137  -0.05067
C          C       0.95512   0.26472   0.65921  -0.04760
C          C       0.04329   0.26417   0.50234  -0.04417
C          C       0.00181   0.61331   0.58147   0.68839
C          C      -0.00217   0.19705   0.58050  -0.08061
C          C       0.08982   0.80721   0.24140   0.66200
C          C       0.95401   0.59573   0.00255  -0.07235
C          C       0.91514   0.80641   0.91786   0.66483
C          C       0.04291   0.59638   0.15916  -0.07228
C          C      -0.00215   0.52795   0.08109  -0.04793
C          C       0.04480   0.73248   0.15851  -0.04562
C          C       0.95687   0.73194   0.00165  -0.04894
C          C      -0.00250   0.38271   0.08129   0.68805
C          C       0.00241   0.79973   0.07965  -0.08016
C          C       0.80817   0.90969   0.49169   0.66159
C          C       0.59924   0.04620   0.25305  -0.07041
C          C       0.80961   0.08497   0.16849   0.65917
C          C       0.59851   0.95671   0.40947  -0.07182
C          C       0.53109   0.00213   0.33141  -0.05088
C          C       0.73441   0.95504   0.40895  -0.04691
C          C       0.73523   0.04354   0.25241  -0.04683
C          C       0.38625   0.00253   0.33150   0.69030
C          C       0.80232  -0.00211   0.33036  -0.07833
C          C       0.19229   0.08950   0.99166   0.66201
C          C       0.40027   0.95293   0.75238  -0.06972
C          C       0.18893   0.91498   0.66831   0.66051
C          C       0.40185   0.04222   0.90909  -0.07198
C          C       0.46873   0.99617   0.83092  -0.05069
C          C       0.26600   0.04465   0.90869  -0.04600
C          C       0.26424   0.95649   0.75186  -0.04886
C          C       0.61352   0.99425   0.83146   0.68774
C          C       0.19778   0.00215   0.83009  -0.07753
O          O       0.91978   0.66977   0.63414  -0.69393
O          O       0.09812   0.25099   0.34170  -0.67392
O          O       0.08481   0.66905   0.52835  -0.70187
O          O       0.10371   0.06745   0.42620  -0.72624
O          O       0.90205   0.24838   0.82030  -0.67389
O          O       0.88304   0.07009   0.73155  -0.72830
O          O       0.07989   0.32657   0.13404  -0.69899
O          O       0.90229   0.74622   0.84057  -0.67081
O          O       0.91490   0.32614   0.02843  -0.69447
O          O       0.89633   0.92850   0.92603  -0.73554
O          O       0.09817   0.74739   0.31931  -0.67681
O          O       0.11601   0.92765   0.23165  -0.72255
O          O       0.32936   0.92051   0.38434  -0.69727
O          O       0.74771   0.09759   0.09170  -0.67525
O          O       0.33091   0.08514   0.27833  -0.70140
O          O       0.93179   0.10314   0.17583  -0.72463
O          O       0.74799   0.90123   0.56953  -0.67748
O          O       0.92818   0.88335   0.48189  -0.72086
O          O       0.67054   0.07723   0.88367  -0.69527
O          O       0.24974   0.90210   0.59124  -0.67538
O          O       0.66868   0.90971   0.77962  -0.69958
O          O       0.06684   0.89649   0.67614  -0.72494
O          O       0.25239   0.09837   0.06950  -0.67601
O          O       0.07208   0.11484   0.98198  -0.72188

