data_crystal

_audit_creation_method 'AiiDA-DDEC plugin'

_cell_length_a         7.24276
_cell_length_b         8.38673
_cell_length_c        11.95241

_cell_angle_alpha     89.25652
_cell_angle_beta     75.25755
_cell_angle_gamma     75.66257

_symmetry_space_group_name_Hall 'P 1'
_symmetry_space_group_name_H-M  'P 1'

loop_
_symmetry_equiv_pos_as_xyz
 'x,y,z'

loop_
_atom_site_label
_atom_site_type_symbol
_atom_site_fract_x
_atom_site_fract_y
_atom_site_fract_z
_atom_site_charge
Eu         Eu      0.21351  -0.00118   0.09080   1.72524
Eu         Eu      0.78614   0.00168   0.91134   1.72742
H          H       0.86667   0.61829   0.11427   0.14584
H          H       0.57951   0.41166   0.08890   0.14331
H          H       0.14512   0.10588   0.50595   0.15419
H          H       0.13486   0.38070   0.88723   0.14611
H          H       0.42067   0.58903   0.91155   0.14241
H          H       0.85232   0.89551   0.49663   0.15487
C          C       0.56390   0.72996   0.09762   0.64175
C          C       0.73082   0.59093   0.10671  -0.15965
C          C       0.71521   0.43518   0.09988  -0.15236
C          C       0.88014   0.28989   0.09923   0.63733
C          C       0.11628   0.01910   0.34045   0.59216
C          C       0.06633   0.03530   0.46805  -0.15062
C          C       0.43782   0.27141   0.90479   0.64576
C          C       0.27012   0.40923   0.89479  -0.16217
C          C       0.28502   0.56531   0.90064  -0.15107
C          C       0.12001   0.71065   0.90118   0.63665
C          C       0.87987   0.98393   0.66241   0.59312
C          C       0.93090   0.96621   0.53474  -0.15137
O          O       0.59934   0.86971   0.06311  -0.71173
O          O       0.38987   0.71225   0.12188  -0.56883
O          O       0.87984   0.15217   0.04993  -0.71823
O          O       0.01877   0.29705   0.14334  -0.55110
O          O       0.01906   0.95253   0.28720  -0.52112
O          O       0.26045   0.07249   0.28117  -0.50614
O          O       0.40375   0.13260   0.94263  -0.71678
O          O       0.61194   0.28868   0.87805  -0.56594
O          O       0.12103   0.84863   0.94988  -0.71778
O          O       0.98059   0.70326   0.85784  -0.55366
O          O       0.97973   0.04723   0.71589  -0.51923
O          O       0.73196   0.93528   0.72186  -0.50839

