data_crystal

_audit_creation_method 'AiiDA-DDEC plugin'

_cell_length_a         7.94331
_cell_length_b        11.27911
_cell_length_c        13.47676

_cell_angle_alpha     64.55063
_cell_angle_beta     89.22471
_cell_angle_gamma     90.48683

_symmetry_space_group_name_Hall 'P 1'
_symmetry_space_group_name_H-M  'P 1'

loop_
_symmetry_equiv_pos_as_xyz
 'x,y,z'

loop_
_atom_site_label
_atom_site_type_symbol
_atom_site_fract_x
_atom_site_fract_y
_atom_site_fract_z
_atom_site_charge
Mn         Mn      0.70806   0.43533   0.74953   0.94306
Mn         Mn      0.79306   0.81722   0.74856   0.94953
Mn         Mn      0.27948   0.57416   0.25271   0.99001
Mn         Mn      0.22077   0.17265   0.25365   0.99129
H          H       0.91310   0.22114   0.71466   0.07863
H          H       0.05193   0.18462   0.56414   0.11484
H          H       0.80464   0.52991   0.33257   0.13211
H          H       0.66609   0.54795   0.49391   0.09081
H          H       0.58991   0.06779   0.71245   0.07925
H          H       0.44665   0.25130   0.56266   0.11363
H          H       0.69482   0.13756   0.33089   0.13187
H          H       0.83758   0.96236   0.49058   0.09108
H          H       0.08380   0.78877   0.28886   0.07779
H          H       0.94362   0.82096   0.43991   0.11340
H          H       0.17253   0.46253   0.66823   0.12878
H          H       0.31383   0.44953   0.50622   0.09316
H          H       0.41544   0.92138   0.29065   0.07767
H          H       0.55822   0.74029   0.44068   0.11241
H          H       0.32769   0.86974   0.66884   0.12930
H          H       0.18328   0.04239   0.50811   0.09398
Au         Au      0.24895   0.10257   0.79628  -0.00061
Au         Au      0.75143   0.89920   0.20131   0.00126
Au         Au      0.99470   0.01116   0.99575   0.03791
Au         Au      0.50575   0.99291   0.99595   0.03466
C          C       0.39803   0.25201   0.78717   0.09797
C          C       0.88143   0.18378   0.91415   0.09734
C          C       0.89071   0.28692   0.62921   0.07817
C          C       0.96861   0.26721   0.54489  -0.14809
C          C       0.94261   0.35689   0.43612   0.00711
C          C       0.83072   0.45945   0.41618  -0.13342
C          C       0.75448   0.47033   0.50528   0.08727
C          C       0.03982   0.34632   0.34443   0.58724
C          C       0.10115   0.96319   0.78518   0.09929
C          C       0.61586   0.90103   0.91408   0.10051
C          C       0.61125   0.08647   0.62715   0.08014
C          C       0.53099   0.18853   0.54339  -0.15261
C          C       0.55561   0.20662   0.43487   0.00859
C          C       0.66887   0.12519   0.41431  -0.13206
C          C       0.74760   0.02715   0.50281   0.08898
C          C       0.45656   0.30752   0.34463   0.58404
C          C       0.61348   0.74710   0.20803   0.08883
C          C       0.10883   0.83808   0.07439   0.09380
C          C       0.10270   0.71953   0.37387   0.07593
C          C       0.02416   0.73700   0.45885  -0.15184
C          C       0.04355   0.64263   0.56762  -0.00299
C          C       0.15126   0.53727   0.58540  -0.13910
C          C       0.22923   0.52910   0.49596   0.08378
C          C       0.94782   0.64958   0.65949   0.54782
C          C       0.88945   0.04313   0.20996   0.08926
C          C       0.39594   0.08808   0.07545   0.09472
C          C       0.39662   0.90584   0.37546   0.07743
C          C       0.47672   0.80474   0.45982  -0.15265
C          C       0.45765   0.79138   0.56795  -0.00243
C          C       0.34876   0.87794   0.58618  -0.13895
C          C       0.26911   0.97399   0.49748   0.08385
C          C       0.55419   0.69410   0.65881   0.55202
N          N       0.50072   0.33188   0.77838  -0.35190
N          N       0.81725   0.28362   0.85890  -0.34393
N          N       0.78688   0.38812   0.61072  -0.24016
N          N      -0.00114   0.89293   0.77559  -0.35383
N          N       0.68017   0.85646   0.85886  -0.34748
N          N       0.71626   0.00455   0.60829  -0.24163
N          N       0.52161   0.66267   0.21264  -0.37822
N          N       0.17240   0.73614   0.12356  -0.37352
N          N       0.20319   0.61647   0.39043  -0.27114
N          N       0.98255   0.12156   0.21521  -0.37669
N          N       0.33452   0.14098   0.12511  -0.37497
N          N       0.29480   0.99154   0.39227  -0.27109
O          O       0.08409   0.23145   0.36010  -0.54754
O          O       0.07525   0.45208   0.25961  -0.55040
O          O       0.40753   0.40526   0.36068  -0.54617
O          O       0.42478   0.28707   0.26080  -0.54923
O          O       0.90911   0.76480   0.64926  -0.49088
O          O       0.90811   0.54247   0.74490  -0.52632
O          O       0.59395   0.58850   0.65017  -0.49159
O          O       0.59196   0.71772   0.74158  -0.52903

