data_crystal

_audit_creation_method 'AiiDA-DDEC plugin'

_cell_length_a         6.86488
_cell_length_b        15.25763
_cell_length_c        15.24893

_cell_angle_alpha     117.78968
_cell_angle_beta     98.63197
_cell_angle_gamma     98.66771

_symmetry_space_group_name_Hall 'P 1'
_symmetry_space_group_name_H-M  'P 1'

loop_
_symmetry_equiv_pos_as_xyz
 'x,y,z'

loop_
_atom_site_label
_atom_site_type_symbol
_atom_site_fract_x
_atom_site_fract_y
_atom_site_fract_z
_atom_site_charge
Co         Co      0.51695   0.40449   0.73237   0.99640
Co         Co      0.78451   0.26751   0.67193   0.99635
Co         Co      0.11183   0.32787   0.59548   0.99338
Co         Co      0.48299   0.59538   0.26733   0.99707
Co         Co      0.21573   0.73276   0.32811   0.99627
Co         Co      0.88814   0.67213   0.40471   0.99488
H          H       0.18009   0.52870   0.55217   0.14444
H          H       0.62793   0.44744   0.97624   0.14228
H          H       0.65206   0.02451   0.47167   0.14343
H          H       0.81944   0.47081   0.44736   0.14358
H          H       0.37215   0.55276   0.02348   0.14259
H          H       0.34781   0.97555   0.52851   0.14324
C          C       0.74587   0.39281   0.56487   0.62500
C          C       0.61728   0.44816   0.53377  -0.14058
C          C       0.43231   0.46359   0.56398   0.31121
C          C       0.31989   0.51542   0.52895  -0.19299
C          C       0.18153   0.43485   0.82779   0.62646
C          C       0.08372   0.46601   0.91420  -0.14134
C          C       0.86850   0.43572   0.89946   0.30987
C          C       0.79101   0.47089   0.98635  -0.18977
C          C       0.35514   0.17175   0.60675   0.62696
C          C       0.17029   0.08547   0.55164  -0.13764
C          C       0.97002   0.10050   0.53636   0.31122
C          C       0.80469   0.01394   0.48473  -0.19282
C          C       0.25463   0.60754   0.43527   0.62404
C          C       0.38270   0.55175   0.46602  -0.13928
C          C       0.56733   0.53604   0.43552   0.31019
C          C       0.67966   0.48418   0.47056  -0.19193
C          C       0.81881   0.56528   0.17218   0.62611
C          C       0.91646   0.53420   0.08568  -0.14149
C          C       0.13169   0.56454   0.10040   0.31006
C          C       0.20912   0.52942   0.01350  -0.19082
C          C       0.64500   0.82820   0.39326   0.62848
C          C       0.82963   0.91452   0.44864  -0.13841
C          C       0.02987   0.89950   0.46400   0.31095
C          C       0.19514   0.98606   0.51561  -0.19265
O          O       0.68897   0.35997   0.62352  -0.61246
O          O       0.90667   0.37808   0.53383  -0.53280
O          O       0.36159   0.43156   0.62515  -0.59796
O          O       0.06637   0.37566   0.73631  -0.61165
O          O       0.37331   0.46620   0.84412  -0.53472
O          O       0.73628   0.37457   0.80630  -0.59700
O          O       0.33176   0.26326   0.63945  -0.60961
O          O       0.53071   0.15529   0.62138  -0.53712
O          O       0.93198   0.19375   0.56856  -0.59830
O          O       0.31151   0.64036   0.37665  -0.61212
O          O       0.09409   0.62238   0.46655  -0.53250
O          O       0.63823   0.56804   0.37437  -0.59840
O          O       0.93375   0.62474   0.26370  -0.61200
O          O       0.62708   0.53363   0.15581  -0.53438
O          O       0.26399   0.62559   0.19357  -0.59761
O          O       0.66815   0.73666   0.36078  -0.61003
O          O       0.46954   0.84470   0.37827  -0.53761
O          O       0.06800   0.80625   0.43165  -0.59844

