data_crystal

_audit_creation_method 'AiiDA-DDEC plugin'

_cell_length_a         7.60140
_cell_length_b        12.73085
_cell_length_c        14.08927

_cell_angle_alpha     90.05695
_cell_angle_beta     89.99006
_cell_angle_gamma     90.02836

_symmetry_space_group_name_Hall 'P 1'
_symmetry_space_group_name_H-M  'P 1'

loop_
_symmetry_equiv_pos_as_xyz
 'x,y,z'

loop_
_atom_site_label
_atom_site_type_symbol
_atom_site_fract_x
_atom_site_fract_y
_atom_site_fract_z
_atom_site_charge
Cd         Cd      0.00256   0.74920   0.73076   1.09317
Cd         Cd      0.49761   0.74929   0.23056   1.09276
Cd         Cd     -0.00257   0.25079   0.26924   1.09308
Cd         Cd      0.50239   0.25070   0.76944   1.09272
Cu         Cu      0.49999   0.00000   0.50000   0.98469
Cu         Cu      0.50000   0.50000   0.50000   0.98077
Cu         Cu     -0.00001  -0.00001  -0.00000   0.98398
Cu         Cu      0.00000   0.50000  -0.00000   0.98383
H          H       0.37320   0.89393   0.77982   0.16567
H          H       0.42856   0.62285   0.71252   0.17993
H          H       0.92869   0.37795   0.78773   0.18006
H          H       0.12666   0.89398   0.27970   0.16557
H          H       0.92898   0.87792   0.21380   0.18039
H          H       0.07101   0.12207   0.78620   0.18022
H          H       0.12579   0.39187   0.72076   0.16584
H          H       0.62562   0.60766   0.77935   0.16506
H          H       0.57144   0.37715   0.28748   0.17985
H          H       0.07131   0.62204   0.21228   0.17985
H          H       0.62679   0.10607   0.22018   0.16552
H          H       0.37438   0.39234   0.22065   0.16501
H          H       0.87420   0.60813   0.27924   0.16598
H          H       0.42902   0.12210   0.28604   0.18031
H          H       0.57097   0.87790   0.71396   0.18023
H          H       0.87334   0.10601   0.72031   0.16556
C          C       0.06361   0.41056   0.78881  -0.48506
C          C       0.65670   0.64639   0.63104   0.67949
C          C       0.15658   0.85425   0.13160   0.68003
C          C       0.06305   0.91175   0.21182  -0.48296
C          C       0.15674   0.35339   0.86921   0.67974
C          C       0.54265   0.47207   0.70179   0.65443
C          C       0.93638   0.58944   0.21120  -0.48494
C          C       0.34351   0.85420   0.63166   0.68042
C          C       0.43694   0.91167   0.71195  -0.48290
C          C       0.56306   0.08833   0.28805  -0.48296
C          C       0.95806   0.97091   0.79820   0.65613
C          C       0.95472   0.47202   0.20180   0.66034
C          C       0.84341   0.14574   0.86841   0.68014
C          C       0.04194   0.02908   0.20180   0.65600
C          C       0.54194   0.97104   0.29810   0.65600
C          C       0.45806   0.02896   0.70190   0.65620
C          C       0.65648   0.14580   0.36834   0.68052
C          C       0.34330   0.35360   0.36897   0.67937
C          C       0.93695   0.08824   0.78818  -0.48310
C          C       0.43713   0.41057   0.28865  -0.48295
C          C       0.84325   0.64661   0.13079   0.67972
C          C       0.04528   0.52797   0.79820   0.66036
C          C       0.45735   0.52792   0.29822   0.65465
C          C       0.56287   0.58943   0.71135  -0.48301
O          O       0.49185   0.92863   0.37583  -0.58829
O          O       0.64236   0.11534   0.45421  -0.54839
O          O       0.00808   0.92837   0.87589  -0.58814
O          O       0.00003   0.57165   0.87619  -0.58869
O          O       0.49320   0.42876   0.62429  -0.58497
O          O       0.50680   0.57124   0.37571  -0.58516
O          O      -0.00003   0.42834   0.12381  -0.58873
O          O       0.57034   0.91641   0.22385  -0.51785
O          O       0.07113   0.58158   0.72323  -0.52012
O          O       0.36502   0.38149   0.45523  -0.54998
O          O       0.75203   0.72637   0.15222  -0.58099
O          O       0.74829   0.72605   0.65237  -0.58050
O          O       0.85758   0.11530   0.95428  -0.54837
O          O       0.74141   0.22817   0.34719  -0.58254
O          O       0.42966   0.08359   0.77616  -0.51774
O          O       0.63497   0.61851   0.54477  -0.55013
O          O       0.24796   0.27362   0.84778  -0.58097
O          O       0.25859   0.77183   0.65281  -0.58223
O          O       0.50814   0.07138   0.62418  -0.58866
O          O       0.99190   0.07161   0.12411  -0.58822
O          O       0.35763   0.88466   0.54579  -0.54856
O          O       0.25170   0.27395   0.34763  -0.58028
O          O       0.07023   0.08368   0.27611  -0.51767
O          O       0.14241   0.88469   0.04573  -0.54858
O          O       0.92976   0.91632   0.72389  -0.51775
O          O       0.24152   0.77193   0.15276  -0.58195
O          O       0.75848   0.22806   0.84724  -0.58221
O          O       0.42882   0.58170   0.22359  -0.51838
O          O       0.13492   0.38124   0.95549  -0.55070
O          O       0.92886   0.41841   0.27677  -0.51997
O          O       0.86508   0.61875   0.04451  -0.55083
O          O       0.57118   0.41829   0.77641  -0.51819

