data_crystal

_audit_creation_method 'AiiDA-DDEC plugin'

_cell_length_a         8.00560
_cell_length_b         8.42997
_cell_length_c        19.26870

_cell_angle_alpha     88.13073
_cell_angle_beta     86.26003
_cell_angle_gamma     61.71830

_symmetry_space_group_name_Hall 'P 1'
_symmetry_space_group_name_H-M  'P 1'

loop_
_symmetry_equiv_pos_as_xyz
 'x,y,z'

loop_
_atom_site_label
_atom_site_type_symbol
_atom_site_fract_x
_atom_site_fract_y
_atom_site_fract_z
_atom_site_charge
Tb         Tb      0.78634   0.94191   0.48379   2.07572
Tb         Tb      0.26913   0.94176   0.01655   2.07504
Tb         Tb      0.20837   0.05991   0.51635   2.07588
Tb         Tb      0.73168   0.05714   0.98363   2.07627
H          H       0.24496   0.52002   0.32961   0.12274
H          H       0.04070   0.54213   0.29359   0.11758
H          H       0.99390   0.82445   0.23000   0.10188
H          H       0.65931   0.55205   0.47006   0.14199
H          H       0.86258   0.45664   0.41341   0.13257
H          H       0.65746   0.45180   0.31771   0.09570
H          H       0.45664   0.54988   0.37619   0.09509
H          H       0.48487   0.77354   0.29319   0.12653
H          H       0.70167   0.73121   0.32957   0.11527
H          H       0.23191   0.51959   0.17165   0.12320
H          H       0.41490   0.54237   0.20696   0.11736
H          H       0.18153   0.82347   0.27075   0.10175
H          H       0.78729   0.55243   0.02944   0.14294
H          H       0.67864   0.45584   0.08544   0.13332
H          H       0.88908   0.44723   0.18156   0.09600
H          H       0.99188   0.54763   0.12378   0.09523
H          H       0.73972   0.76897   0.20694   0.12643
H          H       0.56625   0.72657   0.17004   0.11428
H          H       0.75349   0.48115   0.67079   0.12390
H          H       0.95846   0.45858   0.70681   0.11790
H          H       0.00446   0.17715   0.77062   0.10191
H          H       0.33764   0.45074   0.52946   0.14297
H          H       0.13505   0.54387   0.58642   0.13322
H          H       0.34094   0.54940   0.68187   0.09496
H          H       0.54133   0.45098   0.62319   0.09470
H          H       0.51251   0.22779   0.70642   0.12672
H          H       0.29571   0.27061   0.67008   0.11493
H          H       0.76614   0.48103   0.82929   0.12294
H          H       0.58328   0.45923   0.79349   0.11751
H          H       0.81720   0.17755   0.72982   0.10088
H          H       0.21218   0.44672   0.97066   0.14277
H          H       0.32069   0.54305   0.91446   0.13324
H          H       0.11109   0.55063   0.81830   0.09637
H          H       0.00765   0.45118   0.87619   0.09440
H          H       0.25942   0.22889   0.79335   0.12656
H          H       0.43362   0.27125   0.82993   0.11534
C          C       0.98843   0.73513   0.37149   0.61756
C          C       0.10850   0.62109   0.31021  -0.29188
C          C       0.74596   0.28322   0.44609   0.68624
C          C       0.72271   0.46441   0.42399  -0.30996
C          C       0.59513   0.54302   0.36249  -0.09693
C          C       0.56534   0.73157   0.34034  -0.30145
C          C       0.45079   0.86687   0.39622   0.68630
C          C       0.27375   0.73467   0.12890   0.61772
C          C       0.26797   0.62082   0.19050  -0.29177
C          C       0.96882   0.28248   0.05342   0.68893
C          C       0.81100   0.46338   0.07518  -0.31282
C          C       0.86046   0.53998   0.13714  -0.09741
C          C       0.70180   0.72777   0.15952  -0.30005
C          C       0.68058   0.86437   0.10384   0.68487
C          C       0.00999   0.26595   0.62884   0.61664
C          C       0.89008   0.38012   0.69017  -0.29148
C          C       0.24985   0.71930   0.55470   0.68788
C          C       0.27438   0.53725   0.57583  -0.31248
C          C       0.40276   0.45819   0.63708  -0.09538
C          C       0.43217   0.26984   0.65927  -0.30232
C          C       0.54669   0.13394   0.60359   0.68532
C          C       0.72461   0.26555   0.87135   0.61590
C          C       0.73009   0.38025   0.80997  -0.29006
C          C       0.03107   0.71640   0.94649   0.68805
C          C       0.18852   0.53529   0.92476  -0.31102
C          C       0.13934   0.45830   0.86284  -0.09721
C          C       0.29794   0.27029   0.84057  -0.30154
C          C       0.31922   0.13385   0.89628   0.68617
C          C       0.13255   0.73350   0.25035  -0.11086
C          C       0.86594   0.26781   0.75011  -0.11099
O          O       0.89121   0.90567   0.36467  -0.61938
O          O       0.98242   0.65887   0.43009  -0.66826
O          O       0.60974   0.24645   0.44436  -0.61505
O          O       0.90607   0.16123   0.46868  -0.76223
O          O       0.53302   0.91341   0.44102  -0.77248
O          O       0.27212   0.92891   0.40224  -0.62310
O          O       0.20002   0.90537   0.13535  -0.62015
O          O       0.35658   0.65836   0.07052  -0.66691
O          O       0.14148   0.24624   0.05553  -0.61454
O          O       0.93172   0.15953   0.03117  -0.76444
O          O       0.55064   0.91292   0.05937  -0.77126
O          O       0.79819   0.92551   0.09769  -0.62321
O          O       0.10783   0.09542   0.63554  -0.61725
O          O       0.01536   0.34213   0.57013  -0.66861
O          O       0.38435   0.75769   0.55834  -0.61414
O          O       0.09077   0.84055   0.53111  -0.76458
O          O       0.46502   0.08650   0.55891  -0.76953
O          O       0.72551   0.07170   0.59770  -0.62415
O          O       0.79969   0.09485   0.86470  -0.61837
O          O       0.64161   0.34115   0.92984  -0.66772
O          O       0.85819   0.75328   0.94440  -0.61625
O          O       0.06877   0.83895   0.96877  -0.76246
O          O       0.44935   0.08561   0.94065  -0.77171
O          O       0.20176   0.07247   0.90244  -0.62418

