data_crystal

_audit_creation_method 'AiiDA-DDEC plugin'

_cell_length_a         5.73964
_cell_length_b        10.50073
_cell_length_c        12.88313

_cell_angle_alpha     81.91605
_cell_angle_beta     88.94801
_cell_angle_gamma     66.94591

_symmetry_space_group_name_Hall 'P 1'
_symmetry_space_group_name_H-M  'P 1'

loop_
_symmetry_equiv_pos_as_xyz
 'x,y,z'

loop_
_atom_site_label
_atom_site_type_symbol
_atom_site_fract_x
_atom_site_fract_y
_atom_site_fract_z
_atom_site_charge
Zn         Zn      0.95430   0.60900   0.82034   1.04426
Zn         Zn      0.56840   0.09871   0.42443   1.04966
Zn         Zn      0.74414   0.11122   0.94452   1.09471
Zn         Zn      0.04569   0.39101   0.17966   1.04429
Zn         Zn      0.43159   0.90129   0.57557   1.04957
Zn         Zn      0.25585   0.88878   0.05548   1.09468
P          P       0.94549   0.84525   0.62148   1.24512
P          P       0.84904   0.77019   0.01012   1.26972
P          P       0.05450   0.15476   0.37852   1.24529
P          P       0.15095   0.22981   0.98988   1.27001
H          H       0.18323   0.00111   0.74390   0.32815
H          H       0.60495   0.62895   0.16338   0.34069
H          H       0.80871   0.09096   0.63447   0.11198
H          H       0.87406   0.76863   0.19692   0.12593
H          H       0.81676  -0.00110   0.25610   0.32819
H          H       0.39504   0.37105   0.83662   0.34063
H          H       0.19128   0.90905   0.36553   0.11186
H          H       0.12593   0.23137   0.80307   0.12593
C          C       0.85104  -0.00197   0.69540  -0.21328
C          C       0.59746   0.02114   0.74741   0.62893
C          C       0.92884   0.68373   0.14875  -0.21273
C          C       0.21551   0.60447   0.16197   0.60592
C          C       0.14895   0.00198   0.30459  -0.21341
C          C       0.40254   0.97886   0.25258   0.62923
C          C       0.07116   0.31628   0.85125  -0.21297
C          C       0.78447   0.39555   0.83803   0.60585
O          O       0.88870   0.72643   0.68323  -0.73790
O          O       0.75525   0.90479   0.52087  -0.78324
O          O       0.22150   0.80054   0.58914  -0.69139
O          O       0.02526   0.98823   0.77185  -0.44515
O          O       0.42733  -0.00297   0.69907  -0.55385
O          O       0.55196   0.06693   0.83284  -0.48822
O          O       0.57552   0.80023   0.98025  -0.72053
O          O       0.90876   0.90292   0.01502  -0.78004
O          O       0.03648   0.67020   0.94208  -0.74174
O          O       0.80543   0.59257   0.18018  -0.46436
O          O       0.34504   0.68075   0.15185  -0.52386
O          O       0.31255   0.47258   0.18188  -0.48880
O          O       0.11129   0.27358   0.31677  -0.73782
O          O       0.24474   0.09521   0.47913  -0.78346
O          O       0.77849   0.19947   0.41086  -0.69128
O          O       0.97473   0.01178   0.22814  -0.44504
O          O       0.57266   0.00298   0.30093  -0.55418
O          O       0.44804   0.93307   0.16717  -0.48824
O          O       0.42447   0.19977   0.01975  -0.72071
O          O       0.09123   0.09708   0.98498  -0.78021
O          O       0.96351   0.32980   0.05792  -0.74171
O          O       0.19457   0.40744   0.81981  -0.46420
O          O       0.65494   0.31926   0.84815  -0.52398
O          O       0.68745   0.52741   0.81812  -0.48830

