data_crystal

_audit_creation_method 'AiiDA-DDEC plugin'

_cell_length_a        11.26634
_cell_length_b        11.93634
_cell_length_c        12.62098

_cell_angle_alpha     90.12574
_cell_angle_beta     95.08190
_cell_angle_gamma     90.30272

_symmetry_space_group_name_Hall 'P 1'
_symmetry_space_group_name_H-M  'P 1'

loop_
_symmetry_equiv_pos_as_xyz
 'x,y,z'

loop_
_atom_site_label
_atom_site_type_symbol
_atom_site_fract_x
_atom_site_fract_y
_atom_site_fract_z
_atom_site_charge
Zn         Zn      0.84217   0.96896   0.02114   0.99106
Zn         Zn      0.65763   0.47017   0.47834   0.99146
Zn         Zn      0.15775   0.03114   0.97872   0.99128
Zn         Zn      0.34236   0.52986   0.52160   0.99035
H          H       0.68568   0.21282   0.64782   0.14370
H          H       0.32865   0.26576   0.73635   0.14250
H          H       0.54377   0.00146   0.88412   0.13566
H          H       0.81469   0.71299   0.85055   0.14496
H          H       0.17215   0.76755   0.76244   0.14292
H          H       0.95696   0.49991   0.61579   0.13525
H          H       0.31437   0.78714   0.35221   0.14398
H          H       0.67138   0.73435   0.26369   0.14260
H          H       0.45629  -0.00140   0.11594   0.13559
H          H       0.18548   0.28719   0.14986   0.14440
H          H       0.82788   0.23248   0.23740   0.14305
H          H       0.04268   0.50029   0.38429   0.13540
C          C       0.62619   0.10209   0.76779  -0.07570
C          C       0.61322   0.18969   0.69480  -0.05848
C          C       0.50552   0.24921   0.68427  -0.01919
C          C       0.49119   0.34570   0.60925   0.60223
C          C       0.41191   0.21959   0.74502  -0.06115
C          C       0.42614   0.13009   0.81657  -0.03829
C          C       0.53342   0.07071   0.82836  -0.05511
C          C       0.32724   0.09676   0.87909   0.54352
C          C       0.87408   0.60107   0.73161  -0.07331
C          C       0.88713   0.69001   0.80365  -0.06278
C          C       0.99487   0.75050   0.81390  -0.01990
C          C       0.00907   0.84793   0.88838   0.60235
C          C       0.08868   0.72081   0.75362  -0.06105
C          C       0.07431   0.63024   0.68272  -0.03731
C          C       0.96692   0.56987   0.67122  -0.05629
C          C       0.17311   0.59651   0.62049   0.54345
C          C       0.37387   0.89791   0.23221  -0.07541
C          C       0.38683   0.81037   0.30525  -0.05898
C          C       0.49452   0.75090   0.31580  -0.01924
C          C       0.50885   0.65438   0.39079   0.60290
C          C       0.58814   0.78051   0.25507  -0.06193
C          C       0.57394   0.86999   0.18348  -0.03828
C          C       0.46669   0.92936   0.17172  -0.05511
C          C       0.67286   0.90331   0.12095   0.54422
C          C       0.12598   0.39909   0.26873  -0.07313
C          C       0.11300   0.31015   0.19666  -0.06268
C          C       0.00528   0.24960   0.18629  -0.01905
C          C       0.99106   0.15224   0.11172   0.60169
C          C       0.91135   0.27923   0.24640  -0.06199
C          C       0.92561   0.36978   0.31731  -0.03736
C          C       0.03295   0.43030   0.32888  -0.05648
C          C       0.82678   0.40350   0.37947   0.54324
S          S       0.76251   0.02666   0.78485   1.12529
S          S       0.73737   0.52431   0.71515   1.12382
S          S       0.23753   0.97329   0.21512   1.12634
S          S       0.26285   0.47583   0.28478   1.12342
O          O       0.82340   0.06843   0.89046  -0.53700
O          O       0.83338   0.05762   0.69782  -0.43609
O          O       0.73141   0.90750   0.79357  -0.49179
O          O       0.41094   0.41718   0.62449  -0.51951
O          O       0.56024   0.34852   0.53428  -0.50627
O          O       0.22543   0.14359   0.86723  -0.42655
O          O       0.33941   0.01710   0.94787  -0.45228
O          O       0.67557   0.56588   0.60999  -0.53953
O          O       0.66705   0.55438   0.80284  -0.43845
O          O       0.76832   0.40554   0.70432  -0.49228
O          O       0.08938   0.91985   0.87303  -0.51780
O          O       0.94004   0.85074   0.96343  -0.51293
O          O       0.27440   0.64558   0.63015  -0.42677
O          O       0.16106   0.51414   0.55416  -0.45235
O          O       0.17688   0.93156   0.10941  -0.53736
O          O       0.16660   0.94232   0.30205  -0.43673
O          O       0.26854   0.09247   0.20638  -0.49146
O          O       0.58901   0.58288   0.37548  -0.51969
O          O       0.43977   0.65153   0.46576  -0.50679
O          O       0.77463   0.85645   0.13268  -0.42709
O          O       0.66058   0.98293   0.05212  -0.45220
O          O       0.32617   0.43419   0.38930  -0.53900
O          O       0.33275   0.44586   0.19678  -0.43721
O          O       0.23157   0.59454   0.29556  -0.49249
O          O       0.91076   0.08026   0.12702  -0.51827
O          O       0.06005   0.14949   0.03661  -0.51208
O          O       0.72548   0.35445   0.36985  -0.42700
O          O       0.83892   0.48579   0.44586  -0.45140

