data_crystal

_audit_creation_method 'AiiDA-DDEC plugin'

_cell_length_a         6.78865
_cell_length_b        15.48400
_cell_length_c        15.33278

_cell_angle_alpha     118.54880
_cell_angle_beta     100.15055
_cell_angle_gamma     97.52162

_symmetry_space_group_name_Hall 'P 1'
_symmetry_space_group_name_H-M  'P 1'

loop_
_symmetry_equiv_pos_as_xyz
 'x,y,z'

loop_
_atom_site_label
_atom_site_type_symbol
_atom_site_fract_x
_atom_site_fract_y
_atom_site_fract_z
_atom_site_charge
Fe         Fe      0.98628   0.59514   0.27275   0.85975
Fe         Fe      0.69870   0.73578   0.32839   0.98921
Fe         Fe      0.34334   0.67282   0.39577   0.87193
Fe         Fe      0.01327   0.40489   0.72698   0.86670
Fe         Fe      0.30196   0.26362   0.67247   0.98978
Fe         Fe      0.65494   0.32701   0.60340   0.87815
H          H       0.87190   0.56552   0.02885   0.13981
H          H       0.59706   0.47255   0.20333   0.34552
H          H       0.61763   0.29681   0.10391   0.09219
H          H       0.67912   0.37473   0.05027   0.09771
H          H       0.88148   0.35472   0.12487   0.11961
H          H       0.84973   0.97493   0.54173   0.13775
H          H       0.38409   0.79275   0.26017   0.35501
H          H       0.50955   0.89132   0.18580   0.09207
H          H       0.61535   0.94944   0.32323   0.10276
H          H       0.75662   0.87969   0.23684   0.11917
H          H       0.30072   0.45124   0.43478   0.13871
H          H       0.10660   0.73548   0.51647   0.34676
H          H       0.32643   0.81451   0.69650   0.09578
H          H       0.28862   0.67925   0.61628   0.10050
H          H       0.51695   0.76417   0.63288   0.12026
H          H       0.12775   0.43303   0.97185   0.13972
H          H       0.40179   0.52922   0.79699   0.34815
H          H       0.38408   0.70497   0.89800   0.09064
H          H       0.33230   0.62772   0.95344   0.09715
H          H       0.12334   0.64791   0.88243   0.11873
H          H       0.15040   0.02467   0.45709   0.13706
H          H       0.61723   0.20525   0.73890   0.35468
H          H       0.49290   0.10810   0.81521   0.09197
H          H       0.38482   0.05009   0.67784   0.10033
H          H       0.24584   0.12055   0.76478   0.11848
H          H       0.69606   0.54563   0.56205   0.13871
H          H       0.88700   0.26362   0.47834   0.34978
H          H       0.66962   0.18645   0.30049   0.09535
H          H       0.70034   0.32120   0.37993   0.10138
H          H       0.47567   0.23422   0.36292   0.12048
C          C       0.68421   0.44177   0.83103   0.59626
C          C       0.58478   0.46839   0.91574  -0.17083
C          C       0.63034   0.57046   0.10297   0.29844
C          C       0.70842   0.53716   0.01672  -0.20268
C          C       0.72352   0.36413   0.11630  -0.13705
C          C       0.85780   0.16874   0.61708   0.58879
C          C       0.67180   0.08412   0.55640  -0.17143
C          C       0.52820   0.89988   0.46878   0.28990
C          C       0.69546   0.98538   0.52416  -0.21094
C          C       0.60194   0.88391   0.24711  -0.13538
C          C       0.24057   0.38581   0.56079   0.60766
C          C       0.11438   0.44556   0.53287  -0.17077
C          C       0.05747   0.52456   0.42729   0.30478
C          C       0.16734   0.47161   0.46258  -0.20287
C          C       0.35125   0.75362   0.62660  -0.12998
C          C       0.31532   0.55687   0.16912   0.59421
C          C       0.41491   0.53018   0.08464  -0.17155
C          C       0.36904   0.42859   0.89740   0.29972
C          C       0.29113   0.46129   0.98368  -0.20173
C          C       0.28084   0.63795   0.88764  -0.13327
C          C       0.14204   0.83116   0.38339   0.59169
C          C       0.32812   0.91580   0.44408  -0.17111
C          C       0.47176   0.10007   0.53174   0.28892
C          C       0.30449   0.01451   0.47595  -0.21006
C          C       0.40017   0.11579   0.75416  -0.13264
C          C       0.75876   0.61269   0.43787   0.60978
C          C       0.88393   0.55229   0.46495  -0.17123
C          C       0.94103   0.47347   0.57063   0.30511
C          C       0.83024   0.52579   0.53481  -0.20345
C          C       0.64158   0.24654   0.36980  -0.13118
O          O       0.87892   0.46799   0.84929  -0.49762
O          O       0.56259   0.39343   0.73736  -0.58956
O          O       0.76182   0.63712   0.19671  -0.56777
O          O       0.72687   0.45306   0.21195  -0.41206
O          O       0.03597   0.15215   0.61626  -0.52043
O          O       0.83083   0.25946   0.67331  -0.60159
O          O       0.56342   0.80743   0.44185  -0.57577
O          O       0.51277   0.78951   0.23947  -0.43159
O          O       0.41725   0.38490   0.54586  -0.50027
O          O       0.15272   0.33244   0.59543  -0.60881
O          O       0.12475   0.54642   0.36052  -0.56918
O          O       0.25822   0.75905   0.53722  -0.41301
O          O       0.12082   0.52989   0.15083  -0.49653
O          O       0.43726   0.60637   0.26281  -0.58672
O          O       0.23761   0.36275   0.80348  -0.56942
O          O       0.27155   0.54892   0.79077  -0.41563
O          O       0.96416   0.84750   0.38622  -0.51980
O          O       0.16893   0.74077   0.32517  -0.60215
O          O       0.43669   0.19257   0.55890  -0.57541
O          O       0.49080   0.20991   0.76151  -0.43090
O          O       0.58187   0.61357   0.45231  -0.49979
O          O       0.84817   0.66719   0.40459  -0.60838
O          O       0.87473   0.45215   0.63792  -0.57232
O          O       0.73554   0.24173   0.45939  -0.41414

