data_crystal

_audit_creation_method 'AiiDA-DDEC plugin'

_cell_length_a         6.95323
_cell_length_b        13.08263
_cell_length_c        16.83938

_cell_angle_alpha     90.00000
_cell_angle_beta     90.00000
_cell_angle_gamma     90.93247

_symmetry_space_group_name_Hall 'P 1'
_symmetry_space_group_name_H-M  'P 1'

loop_
_symmetry_equiv_pos_as_xyz
 'x,y,z'

loop_
_atom_site_label
_atom_site_type_symbol
_atom_site_fract_x
_atom_site_fract_y
_atom_site_fract_z
_atom_site_charge
V          V       0.29669   0.73029   0.75000   1.81610
V          V       0.20290   0.23081   0.25000   1.81010
V          V       0.70330   0.26971   0.25000   1.81597
V          V       0.79710   0.76919   0.75000   1.81039
H          H       0.75062   0.01458   0.89723   0.12795
H          H       0.24204   0.76873   0.97587   0.13997
H          H       0.08425   0.86215   0.94076   0.15333
H          H       0.11003   0.84312   0.04504   0.13314
H          H       0.76075   0.51378   0.10699   0.12725
H          H       0.25139   0.27059   0.01829   0.13989
H          H       0.41043   0.36393   0.05684   0.15379
H          H       0.38804   0.34923   0.95187   0.13436
H          H       0.24938   0.98542   0.39723   0.12796
H          H       0.75796   0.23128   0.47587   0.14011
H          H       0.91575   0.13785   0.44076   0.15319
H          H       0.88997   0.15688   0.54504   0.13308
H          H       0.23924   0.48622   0.60698   0.12714
H          H       0.74861   0.72941   0.51829   0.13995
H          H       0.58956   0.63608   0.55684   0.15380
H          H       0.61196   0.65078   0.45187   0.13437
H          H       0.24938   0.98542   0.10277   0.12797
H          H       0.75796   0.23128   0.02413   0.14012
H          H       0.91575   0.13785   0.05924   0.15320
H          H       0.88997   0.15688   0.95496   0.13314
H          H       0.23924   0.48622   0.89301   0.12724
H          H       0.74861   0.72941   0.98171   0.13995
H          H       0.58956   0.63608   0.94316   0.15389
H          H       0.61196   0.65078   0.04813   0.13434
H          H       0.75062   0.01458   0.60277   0.12792
H          H       0.24204   0.76873   0.52413   0.13996
H          H       0.08425   0.86215   0.55924   0.15329
H          H       0.11003   0.84312   0.45496   0.13322
H          H       0.76075   0.51378   0.39301   0.12726
H          H       0.25139   0.27059   0.48171   0.13986
H          H       0.41043   0.36393   0.44316   0.15380
H          H       0.38804   0.34923   0.54813   0.13434
C          C       0.49449   0.93507   0.93406  -0.08224
C          C       0.34753   0.92452   0.99172   0.15672
C          C       0.64178   0.00893   0.94342  -0.16712
C          C       0.50222   0.86921   0.86200   0.63861
C          C       0.18736   0.84537   0.98828  -0.42454
C          C       0.01007   0.43613   0.06628  -0.08289
C          C       0.15080   0.42583   0.00629   0.15611
C          C       0.86465   0.50887   0.05892  -0.16616
C          C       0.00302   0.36957   0.13794   0.63713
C          C       0.30887   0.34824   0.00824  -0.42457
C          C       0.50550   0.06494   0.43406  -0.08213
C          C       0.65246   0.07548   0.49172   0.15649
C          C       0.35822   0.99107   0.44342  -0.16719
C          C       0.49777   0.13080   0.36201   0.63864
C          C       0.81263   0.15463   0.48828  -0.42440
C          C       0.98992   0.56388   0.56628  -0.08284
C          C       0.84919   0.57417   0.50629   0.15619
C          C       0.13534   0.49113   0.55892  -0.16612
C          C      -0.00302   0.63043   0.63794   0.63715
C          C       0.69112   0.65177   0.50824  -0.42452
C          C       0.50550   0.06494   0.06593  -0.08481
C          C       0.65246   0.07548   0.00828   0.15731
C          C       0.35822   0.99107   0.05657  -0.16646
C          C       0.49777   0.13080   0.13799   0.63940
C          C       0.81263   0.15463   0.01172  -0.42446
C          C       0.98992   0.56388   0.93372  -0.08273
C          C       0.84919   0.57417   0.99371   0.15617
C          C       0.13534   0.49113   0.94107  -0.16616
C          C      -0.00302   0.63043   0.86206   0.63713
C          C       0.69112   0.65177   0.99176  -0.42459
C          C       0.49449   0.93507   0.56593  -0.08229
C          C       0.34753   0.92452   0.50828   0.15666
C          C       0.64178   0.00893   0.55657  -0.16715
C          C       0.50222   0.86921   0.63799   0.63858
C          C       0.18736   0.84537   0.51172  -0.42454
C          C       0.01007   0.43613   0.43372  -0.08294
C          C       0.15080   0.42583   0.49371   0.15622
C          C       0.86465   0.50887   0.44107  -0.16604
C          C       0.00302   0.36957   0.36206   0.63709
C          C       0.30887   0.34824   0.49176  -0.42455
O          O       0.34333   0.83347   0.83435  -0.58405
O          O       0.66855   0.85285   0.83301  -0.62230
O          O       0.16045   0.33326   0.16428  -0.58390
O          O       0.83633   0.35294   0.16750  -0.62406
O          O       0.65666   0.16653   0.33435  -0.58421
O          O       0.33145   0.14715   0.33301  -0.62223
O          O       0.83954   0.66675   0.66428  -0.58392
O          O       0.16366   0.64706   0.66750  -0.62416
O          O       0.65666   0.16653   0.16565  -0.58416
O          O       0.33145   0.14715   0.16699  -0.62216
O          O       0.83954   0.66675   0.83572  -0.58393
O          O       0.16366   0.64706   0.83249  -0.62421
O          O       0.34333   0.83347   0.66565  -0.58408
O          O       0.66855   0.85285   0.66699  -0.62227
O          O       0.16045   0.33326   0.33572  -0.58387
O          O       0.83633   0.35294   0.33249  -0.62406
O          O       0.50791   0.68094   0.75000  -0.75330
O          O       0.98960   0.18062   0.25000  -0.74568
O          O       0.49209   0.31906   0.25000  -0.75312
O          O       0.01039   0.81938   0.75000  -0.74579

