data_crystal

_audit_creation_method 'AiiDA-DDEC plugin'

_cell_length_a         9.31365
_cell_length_b        11.80884
_cell_length_c        13.26925

_cell_angle_alpha     90.00000
_cell_angle_beta     89.70276
_cell_angle_gamma     90.00000

_symmetry_space_group_name_Hall 'P 1'
_symmetry_space_group_name_H-M  'P 1'

loop_
_symmetry_equiv_pos_as_xyz
 'x,y,z'

loop_
_atom_site_label
_atom_site_type_symbol
_atom_site_fract_x
_atom_site_fract_y
_atom_site_fract_z
_atom_site_charge
Mn         Mn      0.25000   0.05313  -0.00000   0.97112
Mn         Mn      0.75000   0.94687   0.00000   0.97109
H          H       0.58521   0.78854   0.74464   0.10998
H          H       0.48033   0.69753   0.59086   0.12899
H          H       0.14713   0.95035   0.58692   0.12753
H          H       0.25099   0.03786   0.74206   0.11590
H          H       0.35970   0.84540   0.13521   0.10071
H          H       0.35981   0.63604   0.14339   0.12627
H          H       0.44212   0.47037   0.09072   0.11785
H          H       0.43410   0.25972   0.08555   0.09287
H          H       0.91479   0.78854   0.25536   0.10995
H          H       0.01967   0.69753   0.40914   0.12891
H          H       0.35287   0.95035   0.41308   0.12754
H          H       0.24901   0.03786   0.25794   0.11594
H          H       0.14030   0.84540   0.86479   0.10071
H          H       0.14019   0.63604   0.85660   0.12630
H          H       0.05788   0.47037   0.90928   0.11783
H          H       0.06590   0.25972   0.91445   0.09276
H          H       0.41479   0.21146   0.25536   0.10995
H          H       0.51967   0.30248   0.40914   0.12905
H          H       0.85287   0.04965   0.41308   0.12752
H          H       0.74901   0.96215   0.25794   0.11585
H          H       0.64030   0.15461   0.86479   0.10063
H          H       0.64019   0.36396   0.85660   0.12634
H          H       0.55788   0.52963   0.90928   0.11781
H          H       0.56590   0.74028   0.91445   0.09282
H          H       0.08521   0.21146   0.74464   0.10998
H          H       0.98033   0.30248   0.59086   0.12907
H          H       0.64713   0.04965   0.58692   0.12750
H          H       0.75099   0.96215   0.74206   0.11585
H          H       0.85970   0.15461   0.13521   0.10067
H          H       0.85981   0.36396   0.14339   0.12631
H          H       0.94212   0.52963   0.09072   0.11783
H          H       0.93410   0.74028   0.08555   0.09285
C          C       0.48279   0.97107   0.84736   0.57603
C          C       0.42428   0.91911   0.75309  -0.07428
C          C       0.48904   0.82304   0.71009  -0.08632
C          C       0.43153   0.77227   0.62450  -0.21576
C          C       0.30842   0.81865   0.58062   0.25638
C          C       0.24325   0.91536   0.62130  -0.21554
C          C       0.30185   0.96477   0.70717  -0.07594
C          C       0.31009   0.79598   0.07582   0.10268
C          C       0.31152   0.67814   0.07902  -0.18401
C          C       0.35559   0.42816   0.05094  -0.19096
C          C       0.35254   0.31032   0.04821   0.09022
C          C       0.01721   0.97107   0.15264   0.57594
C          C       0.07572   0.91911   0.24691  -0.07427
C          C       0.01096   0.82304   0.28990  -0.08636
C          C       0.06847   0.77227   0.37550  -0.21570
C          C       0.19159   0.81865   0.41938   0.25643
C          C       0.25675   0.91536   0.37869  -0.21553
C          C       0.19815   0.96477   0.29283  -0.07595
C          C       0.18992   0.79599   0.92418   0.10278
C          C       0.18848   0.67814   0.92098  -0.18409
C          C       0.14442   0.42816   0.94906  -0.19085
C          C       0.14747   0.31032   0.95179   0.09020
C          C       0.51721   0.02894   0.15264   0.57594
C          C       0.57572   0.08089   0.24691  -0.07436
C          C       0.51096   0.17697   0.28990  -0.08625
C          C       0.56847   0.22773   0.37550  -0.21572
C          C       0.69159   0.18135   0.41938   0.25627
C          C       0.75675   0.08464   0.37870  -0.21547
C          C       0.69815   0.03524   0.29283  -0.07599
C          C       0.68991   0.20402   0.92418   0.10266
C          C       0.68848   0.32186   0.92098  -0.18394
C          C       0.64442   0.57185   0.94906  -0.19096
C          C       0.64747   0.68969   0.95179   0.09027
C          C       0.98279   0.02894   0.84736   0.57598
C          C       0.92428   0.08089   0.75309  -0.07428
C          C       0.98904   0.17697   0.71009  -0.08632
C          C       0.93153   0.22773   0.62450  -0.21564
C          C       0.80842   0.18136   0.58062   0.25627
C          C       0.74325   0.08464   0.62130  -0.21556
C          C       0.80185   0.03524   0.70717  -0.07601
C          C       0.81009   0.20402   0.07582   0.10264
C          C       0.81152   0.32186   0.07902  -0.18396
C          C       0.85559   0.57185   0.05094  -0.19100
C          C       0.85253   0.68969   0.04821   0.09022
C          C       0.25000   0.61596   0.00000   0.08956
C          C       0.25000   0.49058  -0.00000   0.08853
C          C       0.75000   0.38404   0.00000   0.08965
C          C       0.75000   0.50942   0.00000   0.08843
N          N       0.25000   0.85514   0.00000  -0.23293
N          N       0.25000   0.25116   0.00000  -0.20127
N          N       0.75000   0.14487  -0.00000  -0.23295
N          N       0.75000   0.74884  -0.00000  -0.20108
O          O       0.41402   0.05218   0.88861  -0.57967
O          O       0.60138   0.93063   0.87926  -0.56658
O          O       0.08599   0.05218   0.11138  -0.57958
O          O       0.89862   0.93063   0.12074  -0.56664
O          O       0.58599   0.94783   0.11138  -0.57963
O          O       0.39863   0.06937   0.12074  -0.56658
O          O       0.91402   0.94783   0.88862  -0.57977
O          O       0.10138   0.06937   0.87926  -0.56650
O          O       0.25000   0.75956   0.50000  -0.22768
O          O       0.75000   0.24045   0.50000  -0.22746

