data_crystal

_audit_creation_method 'AiiDA-DDEC plugin'

_cell_length_a         7.89353
_cell_length_b        10.49329
_cell_length_c        11.73370

_cell_angle_alpha     116.70271
_cell_angle_beta     93.98927
_cell_angle_gamma     89.97318

_symmetry_space_group_name_Hall 'P 1'
_symmetry_space_group_name_H-M  'P 1'

loop_
_symmetry_equiv_pos_as_xyz
 'x,y,z'

loop_
_atom_site_label
_atom_site_type_symbol
_atom_site_fract_x
_atom_site_fract_y
_atom_site_fract_z
_atom_site_charge
Zn         Zn      0.07113   0.69092   0.54271   0.94354
Zn         Zn      0.42782   0.14419   0.45626   0.94108
Zn         Zn      0.92887   0.30907   0.45729   0.94356
Zn         Zn      0.57219   0.85580   0.54374   0.94100
P          P       0.21547   0.90541   0.45925   1.46939
P          P       0.28249   0.44438   0.54168   1.47185
P          P       0.78454   0.09458   0.54075   1.46931
P          P       0.71751   0.55561   0.45832   1.47173
H          H       0.96554   0.85273   0.36285   0.40985
H          H      -0.00373   0.57966   0.73869   0.11792
H          H       0.84230   0.67045   0.93647   0.12948
H          H       0.78986   0.06786   0.91056   0.12137
H          H       0.95066   0.96259   0.71803   0.10910
H          H       0.53256   0.49350   0.63746   0.40893
H          H       0.50434   0.83944   0.25982   0.11899
H          H       0.65808   0.73292   0.06171   0.12909
H          H       0.70809   0.15770   0.09052   0.12130
H          H       0.54825   0.24418   0.28312   0.10960
H          H       0.03446   0.14726   0.63715   0.40999
H          H       0.00373   0.42034   0.26130   0.11776
H          H       0.15771   0.32954   0.06352   0.12937
H          H       0.21015   0.93213   0.08944   0.12141
H          H       0.04934   0.03741   0.28197   0.10912
H          H       0.46745   0.50649   0.36254   0.40874
H          H       0.49567   0.16055   0.74017   0.11897
H          H       0.34192   0.26707   0.93829   0.12891
H          H       0.29192   0.84230   0.90947   0.12137
H          H       0.45176   0.75581   0.71688   0.10973
C          C       0.94845   0.68744   0.78160   0.09980
C          C       0.86062   0.73963   0.89154  -0.16466
C          C       0.79841   0.87839   0.94220   0.09624
C          C       0.83375   0.95988   0.87843  -0.17074
C          C       0.92312   0.90189   0.76968   0.09888
C          C       0.55189   0.90461   0.21736   0.09704
C          C       0.63954   0.84722   0.10745  -0.16352
C          C       0.70123   0.93590   0.05751   0.09808
C          C       0.66520   0.08125   0.12206  -0.17114
C          C       0.57607   0.13175   0.23089   0.10001
C          C       0.05156   0.31255   0.21839   0.09964
C          C       0.13939   0.26036   0.10846  -0.16459
C          C       0.20159   0.12160   0.05780   0.09626
C          C       0.16625   0.04012   0.12156  -0.17052
C          C       0.07689   0.09810   0.23032   0.09892
C          C       0.44812   0.09538   0.78263   0.09688
C          C       0.36047   0.15277   0.89255  -0.16356
C          C       0.29878   0.06410   0.94249   0.09797
C          C       0.33481   0.91874   0.87794  -0.17109
C          C       0.42393   0.86824   0.76911   0.10013
N          N       0.97899   0.76722   0.72107  -0.23561
N          N       0.52083   0.04498   0.27873  -0.23469
N          N       0.02101   0.23277   0.27893  -0.23568
N          N       0.47918   0.95502   0.72127  -0.23443
O          O       0.14220   0.87881   0.56482  -0.79092
O          O       0.88263   0.58717   0.41119  -0.77268
O          O       0.23343   0.06861   0.50577  -0.78838
O          O       0.08137   0.83764   0.33369  -0.66784
O          O       0.35883   0.31283   0.43678  -0.79370
O          O       0.61680   0.16937   0.58689  -0.77635
O          O       0.25964   0.55950   0.49408  -0.79265
O          O       0.41731   0.50583   0.66706  -0.66878
O          O       0.85781   0.12118   0.43517  -0.79071
O          O       0.11737   0.41282   0.58881  -0.77287
O          O       0.76658   0.93138   0.49423  -0.78812
O          O       0.91863   0.16235   0.66630  -0.66797
O          O       0.64117   0.68716   0.56322  -0.79387
O          O       0.38321   0.83062   0.41311  -0.77605
O          O       0.74037   0.44049   0.50591  -0.79265
O          O       0.58270   0.49416   0.33293  -0.66853

