data_crystal

_audit_creation_method 'AiiDA-DDEC plugin'

_cell_length_a         4.38124
_cell_length_b        13.96603
_cell_length_c        15.53750

_cell_angle_alpha     90.00485
_cell_angle_beta     94.49357
_cell_angle_gamma     90.00985

_symmetry_space_group_name_Hall 'P 1'
_symmetry_space_group_name_H-M  'P 1'

loop_
_symmetry_equiv_pos_as_xyz
 'x,y,z'

loop_
_atom_site_label
_atom_site_type_symbol
_atom_site_fract_x
_atom_site_fract_y
_atom_site_fract_z
_atom_site_charge
Cu         Cu      0.48358   0.10728   0.86514   1.11887
Cu         Cu      0.01621   0.60715   0.63493   1.11922
Cu         Cu      0.51641   0.89272   0.13486   1.11895
Cu         Cu      0.98378   0.39285   0.36507   1.11922
Cu         Cu     -0.00001  -0.00000   0.00001   1.09112
Cu         Cu      0.49999   0.50000   0.50001   1.09072
P          P       0.43218   0.89644   0.92584   1.32346
P          P       0.06778   0.39635   0.57416   1.32278
P          P       0.56779   0.10356   0.07416   1.32353
P          P       0.93220   0.60365   0.42585   1.32243
H          H       0.34727   0.72777   0.90153   0.16650
H          H       0.09671   0.79691   0.82868   0.12543
H          H       0.80300   0.78435   0.82704   0.09728
H          H       0.56496   0.85512   0.75597   0.14275
H          H       0.15282   0.22753   0.59845   0.16622
H          H       0.40322   0.29661   0.67132   0.12540
H          H       0.69688   0.28431   0.67281   0.09699
H          H       0.93547   0.35504   0.74398   0.14286
H          H       0.65272   0.27223   0.09848   0.16642
H          H       0.90328   0.20309   0.17132   0.12551
H          H       0.19699   0.21565   0.17296   0.09726
H          H       0.43503   0.14488   0.24403   0.14291
H          H       0.84718   0.77247   0.40155   0.16629
H          H       0.59677   0.70339   0.32868   0.12532
H          H       0.30311   0.71569   0.32719   0.09707
H          H       0.06453   0.64495   0.25602   0.14277
C          C       0.33955   0.79157   0.86007  -0.36245
C          C       0.56281   0.78830   0.79354  -0.22771
C          C       0.53329   0.70690   0.72876   0.65396
C          C       0.16036   0.29137   0.63989  -0.36182
C          C       0.93702   0.28819   0.70640  -0.22789
C          C       0.96610   0.20677   0.77121   0.65388
C          C       0.66043   0.20843   0.13994  -0.36227
C          C       0.43718   0.21170   0.20646  -0.22800
C          C       0.46671   0.29310   0.27124   0.65398
C          C       0.83963   0.70863   0.36011  -0.36174
C          C       0.06297   0.71181   0.29360  -0.22786
C          C       0.03390   0.79322   0.22879   0.65391
O          O       0.78125   0.89908   0.93396  -0.74538
O          O       0.69434   0.11037   0.98081  -0.82777
O          O       0.28220   0.98623   0.87949  -0.83390
O          O       0.30921   0.64865   0.73330  -0.57487
O          O       0.73804   0.70791   0.67453  -0.60167
O          O       0.71872   0.39895   0.56596  -0.74533
O          O       0.80563   0.61017   0.51925  -0.82762
O          O       0.21765   0.48611   0.62063  -0.83373
O          O       0.18944   0.14836   0.76672  -0.57484
O          O       0.76145   0.20796   0.82546  -0.60144
O          O       0.21873   0.10092   0.06605  -0.74545
O          O       0.30565   0.88962   0.01920  -0.82773
O          O       0.71776   0.01377   0.12052  -0.83384
O          O       0.69079   0.35135   0.26670  -0.57488
O          O       0.26196   0.29209   0.32547  -0.60160
O          O       0.28126   0.60105   0.43405  -0.74523
O          O       0.19435   0.38983   0.48076  -0.82782
O          O       0.78231   0.51389   0.37938  -0.83378
O          O       0.81056   0.85164   0.23328  -0.57484
O          O       0.23854   0.79204   0.17454  -0.60155

