data_crystal

_audit_creation_method 'AiiDA-DDEC plugin'

_cell_length_a         8.72346
_cell_length_b         9.83173
_cell_length_c        17.68065

_cell_angle_alpha     90.00000
_cell_angle_beta     90.00000
_cell_angle_gamma     108.94401

_symmetry_space_group_name_Hall 'P 1'
_symmetry_space_group_name_H-M  'P 1'

loop_
_symmetry_equiv_pos_as_xyz
 'x,y,z'

loop_
_atom_site_label
_atom_site_type_symbol
_atom_site_fract_x
_atom_site_fract_y
_atom_site_fract_z
_atom_site_charge
Zn         Zn      0.89856   0.08860   0.83511   1.07031
Zn         Zn      0.89744   0.19790   0.16111   1.10655
Zn         Zn      0.10144   0.41140   0.33511   1.07028
Zn         Zn      0.10256   0.30210   0.66111   1.10655
Zn         Zn      0.10145   0.91140   0.16489   1.07032
Zn         Zn      0.10257   0.80211   0.83889   1.10656
Zn         Zn      0.89856   0.58861   0.66489   1.07029
Zn         Zn      0.89744   0.69790   0.33889   1.10655
P          P       0.75661   0.00840   0.00441   1.36217
P          P       0.23333   0.09987   0.75852   1.29501
P          P       0.76716   0.28753   0.73833   1.29504
P          P       0.24339   0.49160   0.50441   1.36194
P          P       0.76667   0.40013   0.25852   1.29499
P          P       0.23284   0.21247   0.23833   1.29493
P          P       0.24339   0.99161   0.99560   1.36209
P          P       0.76667   0.90014   0.24148   1.29505
P          P       0.23284   0.71247   0.26167   1.29490
P          P       0.75661   0.50840   0.49559   1.36199
P          P       0.23333   0.59987   0.74149   1.29498
P          P       0.76716   0.78753   0.76167   1.29503
H          H       0.78429   0.85302   0.08883   0.40050
H          H       0.58466   0.10499   0.93584   0.15323
H          H       0.51821   0.91423   0.92897   0.15476
H          H       0.44359   0.32152   0.77442   0.15766
H          H       0.47327   0.18558   0.83262   0.14744
H          H       0.53232   0.21206   0.65925   0.15871
H          H       0.55420   0.07078   0.71540   0.15857
H          H       0.21572   0.64699   0.58883   0.40050
H          H       0.41534   0.39501   0.43584   0.15324
H          H       0.48180   0.58577   0.42897   0.15485
H          H       0.55641   0.17848   0.27442   0.15762
H          H       0.52673   0.31442   0.33262   0.14742
H          H       0.46768   0.28794   0.15925   0.15870
H          H       0.44580   0.42922   0.21539   0.15856
H          H       0.21572   0.14699   0.91117   0.40039
H          H       0.41534   0.89501   0.06416   0.15322
H          H       0.48179   0.08577   0.07103   0.15492
H          H       0.55641   0.67848   0.22558   0.15762
H          H       0.52674   0.81442   0.16738   0.14741
H          H       0.46769   0.78794   0.34075   0.15873
H          H       0.44581   0.92923   0.28461   0.15860
H          H       0.78429   0.35302   0.41117   0.40050
H          H       0.58466   0.60500   0.56416   0.15329
H          H       0.51821   0.41423   0.57103   0.15480
H          H       0.44360   0.82152   0.72558   0.15773
H          H       0.47327   0.68559   0.66738   0.14737
H          H       0.53232   0.71207   0.84076   0.15874
H          H       0.55420   0.57078   0.78461   0.15850
C          C       0.56193   0.00514   0.96841  -0.42629
C          C       0.44158   0.20916   0.77496  -0.40840
C          C       0.55926   0.18385   0.71679  -0.40242
C          C       0.43807   0.49487   0.46841  -0.42647
C          C       0.55842   0.29085   0.27496  -0.40844
C          C       0.44075   0.31615   0.21679  -0.40227
C          C       0.43807   0.99487   0.03159  -0.42642
C          C       0.55842   0.79085   0.22505  -0.40855
C          C       0.44075   0.81615   0.28321  -0.40225
C          C       0.56193   0.50514   0.53159  -0.42630
C          C       0.44159   0.70916   0.72505  -0.40852
C          C       0.55926   0.68385   0.78321  -0.40225
O          O       0.71983   0.85376   0.04157  -0.61955
O          O       0.81018   0.12763   0.06359  -0.73846
O          O       0.87715   0.02656   0.93929  -0.73140
O          O       0.17459   0.13806   0.68198  -0.66964
O          O       0.13542   0.13390   0.82622  -0.72439
O          O       0.22076   0.93939   0.75965  -0.69364
O          O       0.87124   0.25800   0.67362  -0.69949
O          O       0.81037   0.24241   0.81736  -0.66920
O          O       0.78088   0.44875   0.74188  -0.67704
O          O       0.28017   0.64625   0.54157  -0.61940
O          O       0.18982   0.37238   0.56359  -0.73845
O          O       0.12285   0.47344   0.43929  -0.73140
O          O       0.82541   0.36194   0.18198  -0.66959
O          O       0.86458   0.36610   0.32622  -0.72442
O          O       0.77924   0.56061   0.25965  -0.69363
O          O       0.12876   0.24200   0.17362  -0.69940
O          O       0.18963   0.25759   0.31736  -0.66922
O          O       0.21912   0.05125   0.24188  -0.67703
O          O       0.28017   0.14625   0.95843  -0.61932
O          O       0.18982   0.87238   0.93641  -0.73854
O          O       0.12285   0.97344   0.06071  -0.73137
O          O       0.82541   0.86195   0.31802  -0.66953
O          O       0.86458   0.86610   0.17378  -0.72447
O          O       0.77924   0.06061   0.24035  -0.69358
O          O       0.12876   0.74200   0.32638  -0.69933
O          O       0.18963   0.75759   0.18265  -0.66926
O          O       0.21912   0.55125   0.25812  -0.67709
O          O       0.71983   0.35376   0.45843  -0.61952
O          O       0.81019   0.62763   0.43641  -0.73841
O          O       0.87716   0.52656   0.56071  -0.73138
O          O       0.17460   0.63806   0.81802  -0.66953
O          O       0.13542   0.63391   0.67378  -0.72445
O          O       0.22076   0.43939   0.74035  -0.69363
O          O       0.87124   0.75800   0.82638  -0.69941
O          O       0.81037   0.74241   0.68265  -0.66934
O          O       0.78088   0.94875   0.75812  -0.67702

