data_crystal

_audit_creation_method 'AiiDA-DDEC plugin'

_cell_length_a        12.50491
_cell_length_b        12.61278
_cell_length_c        12.59529

_cell_angle_alpha     75.73022
_cell_angle_beta     60.17916
_cell_angle_gamma     60.27648

_symmetry_space_group_name_Hall 'P 1'
_symmetry_space_group_name_H-M  'P 1'

loop_
_symmetry_equiv_pos_as_xyz
 'x,y,z'

loop_
_atom_site_label
_atom_site_type_symbol
_atom_site_fract_x
_atom_site_fract_y
_atom_site_fract_z
_atom_site_charge
Sc         Sc      0.18365   0.00015   0.63137   1.86737
Sc         Sc      0.81623   0.00013   0.36549   1.86682
Sc         Sc      0.43352   0.13217   0.49868   1.86783
Sc         Sc      0.06603   0.86779   0.49888   1.86837
H          H       0.54985   0.68843   0.55984   0.12433
H          H       0.79723   0.31161   0.44281   0.12179
H          H       0.48877   0.06041   0.81030   0.12627
H          H       0.36265   0.93756   0.18607   0.12384
H          H       0.70207   0.93687   0.81109   0.12654
H          H       0.45036   0.06290   0.18579   0.12377
H          H       0.76051   0.68801   0.44042   0.12163
H          H       0.88881   0.31219   0.56071   0.12149
H          H       0.37700   0.49956   0.50103   0.14339
H          H       0.12756  -0.00006  -0.00037   0.14196
H          H       0.87239   0.00083  -0.00087   0.14312
H          H       0.12223   0.50019   0.49904   0.14309
H          H       0.42791   0.94807   0.43550   0.42166
H          H       0.62875   0.93198   0.54150   0.42042
H          H       0.12585   0.05647   0.44045   0.41914
H          H       0.82425   0.06457   0.54512   0.41989
C          C       0.32264   0.72236   0.55676   0.64277
C          C       0.56367   0.60536   0.53265  -0.12758
C          C       0.45227   0.60615   0.53059  -0.04249
C          C       0.60200   0.27692   0.44534   0.64344
C          C       0.70056   0.39447   0.47027  -0.12924
C          C       0.58812   0.39321   0.47238  -0.04549
C          C       0.29363   0.05914   0.77721   0.64250
C          C       0.41995   0.03237   0.89329  -0.12397
C          C       0.30890   0.03073   0.89275  -0.04821
C          C       0.13266   0.93923   0.22056   0.64345
C          C       0.34802   0.96645   0.10354  -0.12732
C          C       0.23433   0.96836   0.10482  -0.04831
C          C       0.92939   0.93957   0.77764   0.64507
C          C       0.68725   0.96600   0.89378  -0.12415
C          C       0.79852   0.96823   0.89315  -0.04819
C          C       0.64547   0.06315   0.21994   0.64419
C          C       0.54795   0.03359   0.10352  -0.12850
C          C       0.66017   0.03225   0.10473  -0.04929
C          C       0.95416   0.72256   0.44181   0.64385
C          C       0.82944   0.60536   0.46832  -0.12883
C          C       0.94022   0.60647   0.46974  -0.04509
C          C       0.11912   0.27817   0.55735   0.64204
C          C       0.90271   0.39502   0.53252  -0.12673
C          C       0.01642   0.39406   0.53002  -0.04382
C          C       0.68974   0.50001   0.50135   0.06237
C          C       0.46371   0.49961   0.50142  -0.09199
C          C       0.44173  -0.00057  -0.00167   0.05997
C          C       0.21488  -0.00024  -0.00095  -0.08840
C          C       0.56012  -0.00050  -0.00145   0.06188
C          C       0.78574   0.00032  -0.00094  -0.09048
C          C       0.80830   0.50017   0.50074   0.06399
C          C       0.03504   0.50025   0.49953  -0.09278
O          O       0.30573   0.80834   0.60844  -0.63849
O          O       0.23847   0.72906   0.52332  -0.63266
O          O       0.72329   0.19065   0.39579  -0.63884
O          O       0.49191   0.27018   0.47561  -0.62726
O          O       0.36300   0.11058   0.69089  -0.63658
O          O       0.21415   0.02774   0.77123  -0.63012
O          O       0.16794   0.88900   0.30656  -0.63850
O          O       0.01611   0.96861   0.22694  -0.63487
O          O       0.94554   0.88919   0.69113  -0.63733
O          O       0.01559   0.96975   0.77200  -0.63046
O          O       0.52402   0.11257   0.30618  -0.63940
O          O       0.75529   0.03622   0.22573  -0.63364
O          O       0.88324   0.80872   0.39160  -0.63825
O          O       0.03396   0.72921   0.47211  -0.62653
O          O       0.08422   0.19213   0.60884  -0.63885
O          O       0.23640   0.27172   0.52490  -0.63097
O          O       0.12266   0.99606   0.50526  -1.05086
O          O       0.62544   0.00298   0.48903  -1.05050
O          O       0.36961   0.00508   0.50322  -1.05314
O          O       0.88154   0.99415   0.49168  -1.05013

