data_crystal

_audit_creation_method 'AiiDA-DDEC plugin'

_cell_length_a         6.78667
_cell_length_b        13.03097
_cell_length_c        13.11996

_cell_angle_alpha     90.55337
_cell_angle_beta     106.15252
_cell_angle_gamma     89.95667

_symmetry_space_group_name_Hall 'P 1'
_symmetry_space_group_name_H-M  'P 1'

loop_
_symmetry_equiv_pos_as_xyz
 'x,y,z'

loop_
_atom_site_label
_atom_site_type_symbol
_atom_site_fract_x
_atom_site_fract_y
_atom_site_fract_z
_atom_site_charge
Lu         Lu      0.23144   0.06289   0.71218   1.69217
Lu         Lu      0.27770   0.56774   0.28752   1.69446
Lu         Lu      0.76856   0.93711   0.28782   1.69219
Lu         Lu      0.72230   0.43226   0.71249   1.69460
H          H       0.10214   0.05235   0.95241   0.08965
H          H       0.08032   0.38250   0.97842   0.13798
H          H       0.25774   0.18757   0.25241   0.11105
H          H       0.39716   0.55256   0.04688   0.08787
H          H       0.41870   0.88218   0.02174   0.13817
H          H       0.24195   0.68303   0.74721   0.11051
H          H       0.89786   0.94765   0.04759   0.08971
H          H       0.91968   0.61750   0.02159   0.13801
H          H       0.74226   0.81243   0.74759   0.11100
H          H       0.60284   0.44744   0.95312   0.08786
H          H       0.58129   0.11782   0.97826   0.13821
H          H       0.75805   0.31697   0.25279   0.11062
C          C       0.12035   0.12254  -0.00028   0.09960
C          C       0.07877   0.21800   0.94891  -0.11797
C          C       0.10883   0.30613   0.01246  -0.05638
C          C       0.17502   0.29523   0.12232  -0.08453
C          C       0.20835   0.19650   0.16616   0.08872
C          C       0.00892   0.22673   0.83092   0.64598
C          C       0.20432   0.38957   0.18846   0.56284
C          C       0.89916   0.99710   0.51758   0.47857
C          C       0.38056   0.62167  -0.00059   0.09721
C          C       0.42238   0.71770   0.05032  -0.12093
C          C       0.39074   0.80526   0.98728  -0.05318
C          C       0.32199   0.79297   0.87742  -0.08420
C          C       0.29057   0.69349   0.83347   0.08844
C          C       0.49234   0.72855   0.16843   0.63932
C          C       0.29144   0.88640   0.81142   0.56399
C          C       0.60214   0.49738   0.48382   0.48182
C          C       0.87964   0.87746   0.00028   0.09957
C          C       0.92122   0.78200   0.05109  -0.11799
C          C       0.89116   0.69387   0.98754  -0.05621
C          C       0.82497   0.70477   0.87768  -0.08469
C          C       0.79164   0.80350   0.83384   0.08880
C          C       0.99107   0.77327   0.16909   0.64596
C          C       0.79567   0.61043   0.81155   0.56279
C          C       0.10084   0.00290   0.48242   0.47887
C          C       0.61944   0.37833   0.00060   0.09716
C          C       0.57761   0.28230   0.94969  -0.12084
C          C       0.60926   0.19474   0.01272  -0.05332
C          C       0.67800   0.20703   0.12258  -0.08413
C          C       0.70942   0.30651   0.16653   0.08832
C          C       0.50765   0.27145   0.83158   0.63930
C          C       0.70856   0.11360   0.18858   0.56405
C          C       0.39785   0.50263   0.51618   0.48190
N          N       0.18076   0.11079   0.10598  -0.26483
N          N       0.31882   0.60869   0.89311  -0.26482
N          N       0.81924   0.88921   0.89402  -0.26496
N          N       0.68117   0.39131   0.10689  -0.26476
O          O       0.01976   0.14702   0.77673  -0.58685
O          O       0.93957   0.31236   0.78831  -0.60202
O          O       0.16153   0.47658   0.14039  -0.58711
O          O       0.27071   0.38846   0.28941  -0.55849
O          O       0.90987   0.02766   0.61008  -0.50567
O          O       0.73902   0.96125   0.45047  -0.53550
O          O       0.49578   0.65029   0.22583  -0.58808
O          O       0.54640   0.81772   0.20835  -0.60242
O          O       0.33512   0.97361   0.86031  -0.58434
O          O       0.22582   0.88372   0.71058  -0.55964
O          O       0.59819   0.53431   0.39486  -0.51308
O          O       0.75590   0.45566   0.54956  -0.53832
O          O       0.98024   0.85298   0.22328  -0.58683
O          O       0.06043   0.68764   0.21169  -0.60193
O          O       0.83846   0.52342   0.85961  -0.58703
O          O       0.72929   0.61154   0.71059  -0.55861
O          O       0.09013   0.97233   0.38993  -0.50594
O          O       0.26098   0.03875   0.54954  -0.53585
O          O       0.50421   0.34971   0.77417  -0.58817
O          O       0.45359   0.18228   0.79165  -0.60241
O          O       0.66488   0.02639   0.13969  -0.58442
O          O       0.77418   0.11627   0.28942  -0.55962
O          O       0.40180   0.46568   0.60515  -0.51308
O          O       0.24410   0.54434   0.45044  -0.53812

