data_crystal

_audit_creation_method 'AiiDA-DDEC plugin'

_cell_length_a         8.73638
_cell_length_b         9.33977
_cell_length_c        18.41298

_cell_angle_alpha     89.99013
_cell_angle_beta     89.97962
_cell_angle_gamma     108.45392

_symmetry_space_group_name_Hall 'P 1'
_symmetry_space_group_name_H-M  'P 1'

loop_
_symmetry_equiv_pos_as_xyz
 'x,y,z'

loop_
_atom_site_label
_atom_site_type_symbol
_atom_site_fract_x
_atom_site_fract_y
_atom_site_fract_z
_atom_site_charge
Gd         Gd      0.20409   0.48970   0.55161   2.04968
Gd         Gd      0.79557   0.00986   0.05238   2.05269
Gd         Gd      0.20443   0.99015   0.94763   2.05273
Gd         Gd      0.79591   0.51030   0.44839   2.04981
H          H       0.22570   0.45431   0.06721   0.13021
H          H       0.22549   0.95338   0.43293   0.12997
H          H       0.56029   0.56703   0.71491   0.13002
H          H       0.56043   0.06821   0.78507   0.12978
H          H       0.74086   0.15891   0.67722   0.12180
H          H       0.77430   0.54569   0.93279   0.13020
H          H       0.43971   0.43297   0.28509   0.13006
H          H       0.25931   0.34190   0.17736   0.12280
H          H       0.91589   0.02673   0.31393   0.13264
H          H       0.08412   0.97327   0.68607   0.13274
H          H       0.74069   0.65810   0.82264   0.12287
H          H       0.91495   0.52677   0.18600   0.13201
H          H       0.25914   0.84110   0.32279   0.12194
H          H       0.43958   0.93179   0.21494   0.12978
H          H       0.08505   0.47323   0.81400   0.13205
H          H       0.77451   0.04662   0.56707   0.13008
C          C       0.27619   0.28446   0.36013  -0.07569
C          C       0.02856   0.87656   0.82460   0.57333
C          C       0.22410   0.29490   0.23108  -0.09463
C          C       0.38588   0.84922   0.07774   0.67322
C          C       0.67675   0.15536   0.79068  -0.08732
C          C       0.02902   0.37698   0.67516   0.57234
C          C       0.72381   0.71554   0.63988  -0.07579
C          C       0.93985   0.61463   0.02163  -0.07001
C          C       0.12919   0.47787   0.03735  -0.11209
C          C       0.22360   0.79418   0.26908  -0.09261
C          C       0.67624   0.65474   0.70921  -0.08605
C          C       0.27556   0.78446   0.13995  -0.07573
C          C       0.06975   0.09178   0.43949   0.06079
C          C       0.92423   0.32059   0.73955  -0.01001
C          C       0.92353   0.82000   0.76039  -0.01091
C          C       0.88898   0.75017   0.03328   0.61797
C          C       0.97068   0.88214   0.69156  -0.13851
C          C       0.32376   0.34526   0.29079  -0.08616
C          C       0.12627   0.67025   0.13061   0.06525
C          C       0.87290   0.83009   0.63064   0.06477
C          C       0.87077   0.02262   0.53720  -0.11164
C          C       0.06015   0.38537   0.97837  -0.07013
C          C       0.07647   0.18000   0.23962  -0.01092
C          C       0.97151   0.38221   0.80844  -0.13900
C          C       0.94019   0.11468   0.47808  -0.07200
C          C       0.77590   0.70510   0.76893  -0.09473
C          C       0.87373   0.32975   0.86939   0.06523
C          C       0.06930   0.59216   0.06045   0.06018
C          C       0.87081   0.52213   0.96265  -0.11216
C          C       0.61412   0.15078   0.92226   0.67327
C          C       0.97144   0.12345   0.17540   0.57327
C          C       0.07577   0.67942   0.26045  -0.01001
C          C       0.97098   0.62302   0.32484   0.57233
C          C       0.12923   0.97738   0.46281  -0.11157
C          C       0.93070   0.40784   0.93955   0.06022
C          C       0.77640   0.20582   0.73092  -0.09261
C          C       0.12711   0.16991   0.36937   0.06471
C          C       0.72444   0.21554   0.86006  -0.07573
C          C       0.02933   0.11786   0.30845  -0.13844
C          C       0.11102   0.24984   0.96672   0.61803
C          C       0.05981   0.88533   0.52192  -0.07194
C          C       0.61345   0.65076   0.57775   0.66936
C          C       0.88924   0.24998   0.46573   0.61927
C          C       0.32325   0.84465   0.20932  -0.08729
C          C       0.02850   0.61780   0.19156  -0.13898
C          C       0.93025   0.90822   0.56051   0.06078
C          C       0.38655   0.34924   0.42225   0.66937
C          C       0.11076   0.75002   0.53427   0.61930
O          O       0.25741   0.25504   0.97128  -0.58273
O          O       0.67334   0.65044   0.51424  -0.69481
O          O       0.25726   0.75545   0.53010  -0.58187
O          O       0.46445   0.59570   0.59256  -0.65879
O          O       0.32584   0.85036   0.01443  -0.69477
O          O      -0.00072   0.62069   0.54522  -0.75546
O          O       0.16126   0.48636   0.68033  -0.61686
O          O      -0.00050   0.12064   0.95597  -0.75440
O          O       0.74274   0.24455   0.46990  -0.58190
O          O       0.53520   0.90296   0.09196  -0.66246
O          O       0.83890   0.01456   0.18144  -0.61951
O          O       0.83874   0.51364   0.31968  -0.61702
O          O       0.53555   0.40430   0.40744  -0.65885
O          O       0.00050   0.87937   0.04403  -0.75425
O          O       0.01549   0.18537   0.11306  -0.65501
O          O       0.46480   0.09705   0.90804  -0.66257
O          O       0.32666   0.34956   0.48576  -0.69467
O          O       0.98451   0.81463   0.88694  -0.65503
O          O       0.00072   0.37931   0.45478  -0.75540
O          O       0.67416   0.14964   0.98557  -0.69465
O          O       0.16110   0.98544   0.81856  -0.61951
O          O       0.74259   0.74496   0.02872  -0.58284
O          O       0.01534   0.68610   0.38684  -0.65537
O          O       0.98466   0.31390   0.61316  -0.65548

