data_crystal

_audit_creation_method 'AiiDA-DDEC plugin'

_cell_length_a         5.00906
_cell_length_b        16.41531
_cell_length_c        16.41025

_cell_angle_alpha     90.00093
_cell_angle_beta     89.99627
_cell_angle_gamma     90.00140

_symmetry_space_group_name_Hall 'P 1'
_symmetry_space_group_name_H-M  'P 1'

loop_
_symmetry_equiv_pos_as_xyz
 'x,y,z'

loop_
_atom_site_label
_atom_site_type_symbol
_atom_site_fract_x
_atom_site_fract_y
_atom_site_fract_z
_atom_site_charge
Ag         Ag      0.50018   0.24999   0.74996   0.55226
Ag         Ag      0.49980   0.75001   0.25004   0.55170
H          H       0.11114   0.28950   0.45346   0.13528
H          H       0.45839   0.39396   0.39352   0.12951
H          H       0.11114   0.21049   0.04655   0.13527
H          H       0.45835   0.10605   0.10648   0.12960
H          H       0.11119   0.04662   0.28945   0.13491
H          H       0.45843   0.10649   0.39398   0.12973
H          H       0.11106   0.45331   0.21061   0.13497
H          H       0.45849   0.39356   0.10603   0.12956
H          H       0.88885   0.71050   0.54655   0.13545
H          H       0.54160   0.60604   0.60648   0.12961
H          H       0.88886   0.78952   0.95345   0.13516
H          H       0.54166   0.89395   0.89352   0.12946
H          H       0.88881   0.95339   0.71055   0.13491
H          H       0.54158   0.89351   0.60603   0.12945
H          H       0.88896   0.54669   0.78940   0.13488
H          H       0.54153   0.60644   0.89397   0.12968
C          C       0.10032   0.36348   0.56339  -0.06505
C          C       0.19075   0.34195   0.48536  -0.12984
C          C       0.36654   0.39909   0.45316  -0.18152
C          C       0.41636   0.46544   0.50606  -0.02356
C          C       0.89604   0.32412   0.60638   0.25425
C          C       0.10035   0.13650   0.93661  -0.06488
C          C       0.19073   0.15803   0.01463  -0.12965
C          C       0.36652   0.10091   0.04685  -0.18142
C          C       0.41639   0.03457   0.99395  -0.02352
C          C       0.89610   0.17586   0.89360   0.25414
C          C       0.09999   0.93667   0.36343  -0.06401
C          C       0.19061   0.01467   0.34191  -0.12971
C          C       0.36657   0.04688   0.39906  -0.18203
C          C       0.41636   0.99398   0.46539  -0.02334
C          C       0.89717   0.89375   0.32423   0.24895
C          C       0.10037   0.56341   0.13667  -0.06446
C          C       0.19069   0.48533   0.15817  -0.12959
C          C       0.36638   0.45312   0.10092  -0.18212
C          C       0.41618   0.50600   0.03459  -0.02346
C          C       0.89645   0.60624   0.17564   0.24995
C          C       0.89971   0.63652   0.43662  -0.06489
C          C       0.80926   0.65805   0.51464  -0.12985
C          C       0.63346   0.60091   0.54684  -0.18138
C          C       0.58364   0.53457   0.49394  -0.02358
C          C       0.10389   0.67588   0.39363   0.25358
C          C       0.89959   0.86350   0.06339  -0.06535
C          C       0.80925   0.84197   0.98537  -0.12976
C          C       0.63348   0.89909   0.95316  -0.18148
C          C       0.58361   0.96544   0.00605  -0.02344
C          C       0.10409   0.82411   0.10644   0.25556
C          C       0.90008   0.06335   0.63658  -0.06331
C          C       0.80941   0.98534   0.65809  -0.12964
C          C       0.63343   0.95312   0.60094  -0.18167
C          C       0.58363   0.00602   0.53461  -0.02375
C          C       0.10254   0.10620   0.67571   0.24673
C          C       0.89961   0.43658   0.86334  -0.06461
C          C       0.80930   0.51467   0.84183  -0.12942
C          C       0.63361   0.54688   0.89909  -0.18224
C          C       0.58383   0.49399   0.96542  -0.02353
C          C       0.10362   0.39375   0.82437   0.25014
S          S       0.24170   0.45433   0.59652   0.16206
S          S       0.24177   0.04566   0.90349   0.16198
S          S       0.24181   0.90356   0.45434   0.16111
S          S       0.24178   0.59643   0.04573   0.16137
S          S       0.75830   0.54567   0.40349   0.16173
S          S       0.75823   0.95434   0.09651   0.16230
S          S       0.75819   0.09645   0.54566   0.16119
S          S       0.75823   0.40357   0.95427   0.16154
N          N       0.72134   0.28640   0.63610  -0.41539
N          N       0.72146   0.21358   0.86387  -0.41512
N          N       0.72091   0.86363   0.28638  -0.41797
N          N       0.72084   0.63637   0.21352  -0.41744
N          N       0.27870   0.71362   0.36389  -0.41530
N          N       0.27842   0.78646   0.13610  -0.41535
N          N       0.27932   0.13641   0.71369  -0.41799
N          N       0.27911   0.36366   0.78647  -0.41738

