data_crystal

_audit_creation_method 'AiiDA-DDEC plugin'

_cell_length_a         9.08010
_cell_length_b         9.08136
_cell_length_c        15.14624

_cell_angle_alpha     100.16244
_cell_angle_beta     99.90058
_cell_angle_gamma     114.80448

_symmetry_space_group_name_Hall 'P 1'
_symmetry_space_group_name_H-M  'P 1'

loop_
_symmetry_equiv_pos_as_xyz
 'x,y,z'

loop_
_atom_site_label
_atom_site_type_symbol
_atom_site_fract_x
_atom_site_fract_y
_atom_site_fract_z
_atom_site_charge
Gd         Gd      0.73024   0.98115   0.96214   2.05548
Gd         Gd      0.51894   0.76971   0.53787   2.05686
Gd         Gd      0.26977   0.01885   0.03786   2.05542
Gd         Gd      0.48106   0.23029   0.46213   2.05689
H          H       0.08997   0.53798   0.93908   0.14601
H          H       0.34957   0.40069   0.93895   0.14745
H          H       0.96145   0.41023   0.56062   0.14658
H          H       0.09850   0.15051   0.56083   0.14625
H          H       0.91004   0.46202   0.06092   0.14624
H          H       0.65044   0.59931   0.06105   0.14736
H          H       0.03856   0.58977   0.43939   0.14660
H          H       0.90151   0.84949   0.43917   0.14617
C          C       0.35124   0.70193   0.94248   0.68514
C          C       0.20983   0.53835   0.93863  -0.15685
C          C       0.09185   0.23952   0.94287   0.68722
C          C       0.22905   0.39930   0.93868  -0.15960
C          C       0.79700   0.14905   0.55745   0.68885
C          C       0.96070   0.29028   0.56122  -0.16170
C          C       0.26006   0.40800   0.55754   0.68748
C          C       0.09981   0.27105   0.56139  -0.15557
C          C       0.64876   0.29807   0.05752   0.68515
C          C       0.79017   0.46165   0.06138  -0.15685
C          C       0.90816   0.76048   0.05713   0.68708
C          C       0.77096   0.60070   0.06132  -0.15973
C          C       0.20301   0.85095   0.44256   0.68874
C          C       0.03931   0.70972   0.43878  -0.16147
C          C       0.73995   0.59200   0.44247   0.68751
C          C       0.90020   0.72895   0.43862  -0.15577
C          C       0.67400   0.82355   0.74982   0.50248
C          C       0.57340   0.92702   0.75024   0.50286
C          C       0.32601   0.17645   0.25018   0.50262
C          C       0.42661   0.07298   0.24976   0.50264
O          O       0.32069   0.82931   0.94759  -0.72134
O          O       0.49542   0.71410   0.94199  -0.64322
O          O       0.75566   0.83033   0.82851  -0.58784
O          O       0.12794   0.11780   0.94844  -0.72028
O          O       0.94704   0.22653   0.94232  -0.64463
O          O       0.57046  -0.00114   0.82925  -0.58937
O          O       0.66960   0.17944   0.55238  -0.72273
O          O       0.78483   0.00504   0.55821  -0.64435
O          O       0.66613   0.74118   0.67078  -0.58973
O          O       0.38128   0.37083   0.55230  -0.71929
O          O       0.27411   0.55321   0.55821  -0.64631
O          O       0.50334   0.93135   0.67147  -0.58984
O          O       0.67932   0.17069   0.05241  -0.72126
O          O       0.50459   0.28590   0.05801  -0.64336
O          O       0.24435   0.16967   0.17149  -0.58816
O          O       0.87207   0.88220   0.05157  -0.72036
O          O       0.05297   0.77347   0.05768  -0.64431
O          O       0.42955   0.00114   0.17075  -0.58915
O          O       0.33041   0.82056   0.44762  -0.72256
O          O       0.21518   0.99496   0.44179  -0.64445
O          O       0.33388   0.25882   0.32922  -0.58980
O          O       0.61873   0.62917   0.44770  -0.71949
O          O       0.72590   0.44679   0.44180  -0.64615
O          O       0.49667   0.06865   0.32853  -0.58957

