data_crystal

_audit_creation_method 'AiiDA-DDEC plugin'

_cell_length_a         7.19415
_cell_length_b        13.89213
_cell_length_c        17.63412

_cell_angle_alpha     90.00000
_cell_angle_beta     99.87193
_cell_angle_gamma     90.00000

_symmetry_space_group_name_Hall 'P 1'
_symmetry_space_group_name_H-M  'P 1'

loop_
_symmetry_equiv_pos_as_xyz
 'x,y,z'

loop_
_atom_site_label
_atom_site_type_symbol
_atom_site_fract_x
_atom_site_fract_y
_atom_site_fract_z
_atom_site_charge
In         In      0.47086   0.10082   0.45234   1.48192
In         In      0.52915   0.60082   0.04766   1.48170
In         In      0.52915   0.89918   0.54766   1.48185
In         In      0.47086   0.39918   0.95233   1.48174
In         In      0.00000   0.00000   0.50000   1.56495
In         In      0.00000   0.50000   0.00000   1.56489
H          H       0.22244   0.23303   0.77491   0.13545
H          H       0.51946   0.20629   0.72663   0.14103
H          H       0.77757   0.73303   0.72509   0.13534
H          H       0.48055   0.70629   0.77336   0.14112
H          H       0.77757   0.76698   0.22509   0.13534
H          H       0.48054   0.79371   0.27336   0.14117
H          H       0.22244   0.26698   0.27491   0.13546
H          H       0.51946   0.29371   0.22663   0.14106
C          C       0.77653   0.17048   0.68661   0.02942
C          C       0.97729   0.17717   0.69922  -0.00676
C          C       0.06919   0.22739   0.76378  -0.09557
C          C       0.96539   0.27205   0.81410  -0.00981
C          C       0.76515   0.26503   0.79997   0.02404
C          C       0.67267   0.21284   0.73736  -0.11848
C          C       0.67126   0.11943   0.61741   0.59101
C          C       0.08472   0.13044   0.64225   0.56415
C          C       0.06425   0.33171   0.88019   0.61445
C          C       0.64906   0.31111   0.85185   0.54803
C          C       0.22348   0.67048   0.81338   0.02921
C          C       0.02272   0.67717   0.80077  -0.00646
C          C       0.93081   0.72740   0.73622  -0.09561
C          C       0.03461   0.77205   0.68589  -0.00982
C          C       0.23486   0.76503   0.70002   0.02404
C          C       0.32734   0.71284   0.76263  -0.11838
C          C       0.32875   0.61943   0.88259   0.59085
C          C       0.91528   0.63044   0.85775   0.56408
C          C       0.93576   0.83171   0.61980   0.61441
C          C       0.35095   0.81111   0.64815   0.54797
C          C       0.22348   0.82952   0.31339   0.02906
C          C       0.02272   0.82283   0.30077  -0.00648
C          C       0.93081   0.77261   0.23622  -0.09445
C          C       0.03461   0.72795   0.18589  -0.01347
C          C       0.23486   0.73497   0.20002   0.02514
C          C       0.32734   0.78716   0.26263  -0.11838
C          C       0.32875   0.88058   0.38259   0.59161
C          C       0.91528   0.86956   0.35775   0.56400
C          C       0.93576   0.66829   0.11981   0.61548
C          C       0.35095   0.68889   0.14815   0.54789
C          C       0.77653   0.32952   0.18661   0.02938
C          C       0.97728   0.32283   0.19923  -0.00653
C          C       0.06919   0.27261   0.26378  -0.09447
C          C       0.96539   0.22795   0.31410  -0.01347
C          C       0.76515   0.23497   0.29997   0.02510
C          C       0.67267   0.28716   0.23736  -0.11837
C          C       0.67125   0.38057   0.11741   0.59094
C          C       0.08472   0.36956   0.14225   0.56390
C          C       0.06425   0.16829   0.38019   0.61544
C          C       0.64906   0.18889   0.35185   0.54795
O          O       0.57100   0.16911   0.56644  -0.48700
O          O       0.69514   0.02849   0.62127  -0.44265
O          O       0.99189   0.12527   0.57288  -0.54638
O          O       0.24697   0.09967   0.66666  -0.36355
O          O       0.22910   0.30495   0.91087  -0.53606
O          O       0.97259   0.40451   0.89748  -0.53629
O          O       0.66620   0.28099   0.92098  -0.47971
O          O       0.53214   0.37660   0.82613  -0.47946
O          O       0.69162   0.99112   0.48156  -0.81010
O          O       0.42900   0.66911   0.93355  -0.48684
O          O       0.30486   0.52849   0.87872  -0.44256
O          O       0.00812   0.62527   0.92711  -0.54659
O          O       0.75304   0.59967   0.83333  -0.36367
O          O       0.77091   0.80495   0.58912  -0.53611
O          O       0.02742   0.90452   0.60251  -0.53603
O          O       0.33381   0.78099   0.57901  -0.47953
O          O       0.46787   0.87661   0.67386  -0.47953
O          O       0.30839   0.49111   0.01844  -0.81024
O          O       0.42900   0.83089   0.43355  -0.48722
O          O       0.30486   0.97152   0.37872  -0.44267
O          O       0.00812   0.87474   0.42711  -0.54648
O          O       0.75304   0.90033   0.33334  -0.36353
O          O       0.77091   0.69506   0.08912  -0.53589
O          O       0.02742   0.59549   0.10251  -0.53619
O          O       0.33381   0.71902   0.07901  -0.47939
O          O       0.46787   0.62340   0.17387  -0.47955
O          O       0.30839   0.00889   0.51844  -0.81022
O          O       0.57100   0.33089   0.06645  -0.48701
O          O       0.69514   0.47152   0.12127  -0.44256
O          O       0.99188   0.37473   0.07289  -0.54638
O          O       0.24696   0.40033   0.16666  -0.36345
O          O       0.22910   0.19505   0.41088  -0.53595
O          O       0.97259   0.09549   0.39748  -0.53616
O          O       0.66619   0.21901   0.42099  -0.47952
O          O       0.53214   0.12340   0.32613  -0.47953
O          O       0.69162   0.50889   0.98155  -0.81010

