data_crystal

_audit_creation_method 'AiiDA-DDEC plugin'

_cell_length_a         8.03863
_cell_length_b         9.90023
_cell_length_c        13.21000

_cell_angle_alpha     110.63102
_cell_angle_beta     106.21976
_cell_angle_gamma     93.96668

_symmetry_space_group_name_Hall 'P 1'
_symmetry_space_group_name_H-M  'P 1'

loop_
_symmetry_equiv_pos_as_xyz
 'x,y,z'

loop_
_atom_site_label
_atom_site_type_symbol
_atom_site_fract_x
_atom_site_fract_y
_atom_site_fract_z
_atom_site_charge
Zn         Zn      0.37936   0.13247   0.75925   0.77122
Zn         Zn      0.62065   0.86753   0.24075   0.77121
Zn         Zn      0.00000   0.50000   0.50000   0.71731
Zn         Zn      0.50000   0.50000   0.50000   0.71574
H          H       0.07993   0.85001   0.62457   0.11350
H          H       0.60680   0.85863   0.63955   0.12212
H          H       0.02627   0.26710   0.62670   0.12260
H          H       0.53809   0.26109   0.61182   0.11369
H          H       0.84169   0.05531   0.83242   0.10895
H          H       0.32196  -0.00240   0.04499   0.12796
H          H       0.98611   0.28006   0.82974   0.10702
H          H       0.72249   0.55497   0.04177   0.12857
H          H       0.92007   0.14999   0.37543   0.11360
H          H       0.39320   0.14137   0.36045   0.12207
H          H       0.97374   0.73290   0.37329   0.12272
H          H       0.46192   0.73891   0.38818   0.11361
H          H       0.15831   0.94469   0.16758   0.10894
H          H       0.67805   0.00240   0.95501   0.12788
H          H       0.01390   0.71994   0.17026   0.10701
H          H       0.27752   0.44503   0.95823   0.12862
C          C       0.19919   0.81416   0.61109   0.14928
C          C       0.46771   0.81975   0.62007   0.16303
C          C       0.14615   0.28728   0.60781   0.16535
C          C       0.40551   0.28380   0.59871   0.15184
C          C       0.19038   0.06097   0.86075   0.54488
C          C       0.09093   0.02771   0.93130  -0.03058
C          C       0.90923   0.02846   0.90459  -0.12081
C          C       0.18151  -0.00111   0.02686  -0.10051
C          C       0.99310   0.37780   0.90330  -0.11909
C          C       0.84486   0.53250   0.02490  -0.09765
C          C       0.83783   0.40965   0.92792  -0.03344
C          C       0.66558   0.31007   0.85487   0.54517
C          C       0.80081   0.18584   0.38891   0.14954
C          C       0.53229   0.18025   0.37993   0.16289
C          C       0.85385   0.71272   0.39219   0.16537
C          C       0.59449   0.71620   0.40128   0.15170
C          C       0.80963   0.93902   0.13925   0.54488
C          C       0.90908   0.97229   0.06870  -0.03049
C          C       0.09077   0.97154   0.09540  -0.12089
C          C       0.81849   0.00110   0.97314  -0.10064
C          C       0.00690   0.62220   0.09670  -0.11914
C          C       0.15515   0.46750   0.97510  -0.09755
C          C       0.16217   0.59035   0.07208  -0.03356
C          C       0.33443   0.68993   0.14513   0.54532
N          N       0.21146   0.67524   0.55487  -0.23090
N          N       0.38658   0.67856   0.56084  -0.21842
N          N       0.35507   0.90711   0.65216  -0.27800
N          N       0.16975   0.37309   0.55167  -0.21939
N          N       0.33879   0.37048   0.54564  -0.22904
N          N       0.28964   0.22949   0.63786  -0.28329
N          N       0.78855   0.32476   0.44513  -0.23091
N          N       0.61343   0.32144   0.43916  -0.21865
N          N       0.64493   0.09289   0.34784  -0.27790
N          N       0.83026   0.62691   0.44833  -0.21906
N          N       0.66121   0.62952   0.45436  -0.22935
N          N       0.71037   0.77051   0.36214  -0.28320
O          O       0.10887   0.07946   0.76895  -0.57581
O          O       0.35792   0.07185   0.89287  -0.51863
O          O       0.65802   0.19250   0.76896  -0.57588
O          O       0.52628   0.34001   0.87953  -0.52018
O          O       0.89113   0.92054   0.23105  -0.57575
O          O       0.64208   0.92815   0.10713  -0.51874
O          O       0.34198   0.80750   0.23104  -0.57619
O          O       0.47372   0.65999   0.12046  -0.51994

