data_crystal

_audit_creation_method 'AiiDA-DDEC plugin'

_cell_length_a         4.45821
_cell_length_b         9.52105
_cell_length_c        15.02946

_cell_angle_alpha     112.85707
_cell_angle_beta     99.23188
_cell_angle_gamma     87.42980

_symmetry_space_group_name_Hall 'P 1'
_symmetry_space_group_name_H-M  'P 1'

loop_
_symmetry_equiv_pos_as_xyz
 'x,y,z'

loop_
_atom_site_label
_atom_site_type_symbol
_atom_site_fract_x
_atom_site_fract_y
_atom_site_fract_z
_atom_site_charge
Mn         Mn      0.00014   0.00003   0.00012   0.84703
H          H       0.84684   0.48508   0.49429   0.06417
H          H       0.50377   0.39807   0.89558   0.11801
H          H       0.25374   0.37241   0.10643   0.10530
H          H       0.41100   0.93827   0.80418   0.10097
H          H       0.28575   0.76842   0.62867   0.12000
H          H       0.13515   0.54502   0.66032   0.12091
H          H       0.22572   0.72277   0.83351   0.08805
H          H       0.15324   0.51482   0.50586   0.06431
H          H       0.49620   0.60188   0.10447   0.11832
H          H       0.74610   0.62760   0.89368   0.10524
H          H       0.58886   0.06162   0.19595   0.10117
H          H       0.71430   0.23151   0.37144   0.12047
H          H       0.86498   0.45500   0.33982   0.12111
H          H       0.77440   0.27731   0.16662   0.08782
C          C       0.48182   0.17720   0.96916   0.41332
C          C       0.86421   0.37094   0.00246   0.22502
C          C       0.70838   0.44922   0.94634  -0.15484
C          C       0.14731   0.42620   0.05794  -0.20436
C          C       0.56604   0.84869   0.76970   0.09600
C          C       0.49353   0.75044   0.67147  -0.16705
C          C       0.69242   0.63369   0.62946   0.09610
C          C       0.63410   0.52666   0.52768  -0.11508
C          C       0.96170   0.62681   0.68920  -0.17477
C          C       0.01931   0.72973   0.78611   0.09684
C          C       0.51808   0.82277   0.03097   0.41339
C          C       0.13556   0.62914   0.99770   0.22560
C          C       0.29141   0.55082   0.05379  -0.15575
C          C       0.85246   0.57388   0.94221  -0.20507
C          C       0.43391   0.15124   0.23043   0.09550
C          C       0.50650   0.24951   0.32865  -0.16709
C          C       0.30764   0.36627   0.37068   0.09713
C          C       0.36599   0.47327   0.47246  -0.11618
C          C       0.03838   0.37319   0.31095  -0.17578
C          C       0.98071   0.27028   0.21403   0.09697
N          N       0.27614   0.08488   0.93729  -0.61874
N          N       0.74404   0.24074   0.00524  -0.38964
N          N       0.82141   0.83779   0.82800  -0.24306
N          N       0.72380   0.91519   0.06283  -0.61905
N          N       0.25587   0.75934   0.99495  -0.38966
N          N       0.17854   0.16217   0.17215  -0.24262

