data_crystal

_audit_creation_method 'AiiDA-DDEC plugin'

_cell_length_a        11.79115
_cell_length_b        14.01037
_cell_length_c        15.70111

_cell_angle_alpha     90.00000
_cell_angle_beta     90.00000
_cell_angle_gamma     90.00000

_symmetry_space_group_name_Hall 'P 1'
_symmetry_space_group_name_H-M  'P 1'

loop_
_symmetry_equiv_pos_as_xyz
 'x,y,z'

loop_
_atom_site_label
_atom_site_type_symbol
_atom_site_fract_x
_atom_site_fract_y
_atom_site_fract_z
_atom_site_charge
Zn         Zn      0.50000   0.09786   0.00000   0.82053
Zn         Zn      0.50000   0.90214   0.00000   0.82065
H          H       0.13531   0.15328   0.33258   0.10759
H          H       0.25886   0.15279   0.20303   0.11237
H          H       0.86469   0.84672   0.33258   0.10761
H          H       0.74114   0.84721   0.20303   0.11242
H          H       0.86469   0.15328   0.66742   0.10762
H          H       0.74114   0.15279   0.79697   0.11233
H          H       0.13531   0.84672   0.66742   0.10765
H          H       0.25886   0.84721   0.79697   0.11242
H          H       0.86469   0.84672   0.66742   0.10765
H          H       0.74114   0.84721   0.79697   0.11241
H          H       0.13531   0.15328   0.66742   0.10761
H          H       0.25886   0.15279   0.79697   0.11234
H          H       0.13531   0.84672   0.33258   0.10760
H          H       0.25886   0.84721   0.20303   0.11243
H          H       0.86469   0.15328   0.33258   0.10760
H          H       0.74114   0.15279   0.20303   0.11236
H          H       0.79055   0.00000   0.50000   0.12054
H          H       0.20945   0.00000   0.50000   0.12056
H          H       0.32496   0.25186   0.00000   0.11710
H          H       0.31621   0.42883   0.00000   0.12634
H          H       0.67504   0.74814   0.00000   0.11705
H          H       0.68379   0.57117   0.00000   0.12637
H          H       0.67504   0.25186   0.00000   0.11710
H          H       0.68379   0.42883   0.00000   0.12634
H          H       0.32496   0.74814   0.00000   0.11705
H          H       0.31621   0.57117   0.00000   0.12632
C          C       0.16160   0.08622   0.30382  -0.14896
C          C       0.23031   0.08627   0.23151  -0.09087
C          C       0.83841   0.91378   0.30382  -0.14893
C          C       0.76969   0.91372   0.23151  -0.09098
C          C       0.83840   0.08622   0.69618  -0.14896
C          C       0.76969   0.08627   0.76849  -0.09078
C          C       0.16160   0.91378   0.69618  -0.14895
C          C       0.23031   0.91372   0.76849  -0.09093
C          C       0.83841   0.91378   0.69618  -0.14893
C          C       0.76969   0.91372   0.76849  -0.09093
C          C       0.16160   0.08622   0.69618  -0.14895
C          C       0.23031   0.08627   0.76849  -0.09079
C          C       0.16160   0.91378   0.30382  -0.14893
C          C       0.23031   0.91372   0.23151  -0.09100
C          C       0.83840   0.08622   0.30382  -0.14896
C          C       0.76969   0.08627   0.23151  -0.09083
C          C       0.50000   0.44697   0.00000   0.09792
C          C       0.50000   0.55303   0.00000   0.09787
C          C       0.11719   0.00000   0.50000  -0.18682
C          C       0.88281   0.00000   0.50000  -0.18683
C          C       0.05973   0.00000   0.42173   0.02061
C          C       0.12718  -0.00000   0.34136   0.08393
C          C       0.26601   0.00000   0.19500  -0.04121
C          C       0.34518  -0.00001   0.12024   0.58827
C          C       0.94027   0.00000   0.42173   0.02065
C          C       0.87283  -0.00000   0.34136   0.08391
C          C       0.73399   0.00000   0.19500  -0.04123
C          C       0.65482  -0.00001   0.12024   0.58826
C          C       0.94027   0.00000   0.57827   0.02061
C          C       0.87283  -0.00000   0.65864   0.08380
C          C       0.73399   0.00000   0.80500  -0.04131
C          C       0.65482  -0.00001   0.87976   0.58831
C          C       0.05973   0.00000   0.57827   0.02069
C          C       0.12718  -0.00000   0.65864   0.08382
C          C       0.26601   0.00000   0.80500  -0.04131
C          C       0.34518  -0.00001   0.87976   0.58829
C          C       0.40188   0.29491   0.00000   0.09920
C          C       0.39858   0.39409   0.00000  -0.17956
C          C       0.59812   0.70509   0.00000   0.09928
C          C       0.60142   0.60590   0.00000  -0.17951
C          C       0.59812   0.29491   0.00000   0.09921
C          C       0.60142   0.39409   0.00000  -0.17955
C          C       0.40188   0.70509   0.00000   0.09926
C          C       0.39858   0.60590   0.00000  -0.17949
N          N       0.50000   0.24582   0.00000  -0.17486
N          N       0.50000   0.75418   0.00000  -0.17509
O          O       0.37683   0.08106   0.09167  -0.55689
O          O       0.62317   0.91895   0.09168  -0.55667
O          O       0.62317   0.08106   0.90833  -0.55692
O          O       0.37683   0.91895   0.90832  -0.55671
O          O       0.62317   0.91895   0.90832  -0.55670
O          O       0.37683   0.08106   0.90833  -0.55692
O          O       0.37683   0.91895   0.09168  -0.55666
O          O       0.62317   0.08106   0.09167  -0.55688

