data_crystal

_audit_creation_method 'AiiDA-DDEC plugin'

_cell_length_a         9.45227
_cell_length_b        10.37649
_cell_length_c        11.35659

_cell_angle_alpha     64.22585
_cell_angle_beta     72.42047
_cell_angle_gamma     84.03969

_symmetry_space_group_name_Hall 'P 1'
_symmetry_space_group_name_H-M  'P 1'

loop_
_symmetry_equiv_pos_as_xyz
 'x,y,z'

loop_
_atom_site_label
_atom_site_type_symbol
_atom_site_fract_x
_atom_site_fract_y
_atom_site_fract_z
_atom_site_charge
Cd         Cd      0.00377   0.35033   0.18119   1.10946
Cd         Cd      0.99622   0.64967   0.81881   1.10942
Cd         Cd     -0.00000  -0.00000   0.50000   1.12828
H          H       0.18277   0.16965   0.63079   0.17545
H          H       0.45008   0.08532   0.68957   0.16560
H          H       0.26134   0.86355   0.84943   0.15396
H          H       0.27257   0.10557   0.89473   0.15877
H          H       0.81722   0.83035   0.36921   0.17536
H          H       0.54991   0.91468   0.31043   0.16573
H          H       0.73865   0.13644   0.15057   0.15399
H          H       0.72742   0.89443   0.10527   0.15887
C          C       0.08510   0.05602   0.17637   0.53905
C          C       0.06447   0.63686   0.09295   0.52718
C          C       0.11276   0.78252   0.05776   0.12097
C          C       0.22795   0.27948   0.32702   0.52068
C          C       0.32258   0.21766   0.42079   0.19024
C          C       0.69944   0.14814   0.43310   0.53448
C          C       0.53467   0.15102   0.46779   0.14339
C          C       0.29223   0.17281   0.56179  -0.13959
C          C       0.42692   0.12825   0.59184  -0.15109
C          C       0.12455   0.97182   0.09466   0.10704
C          C       0.20660   0.88224   0.93917  -0.15654
C          C       0.21328   0.00404   0.96286  -0.17200
C          C       0.91489   0.94398   0.82362   0.53888
C          C       0.93552   0.36314   0.90705   0.52721
C          C       0.88723   0.21747   0.94224   0.12095
C          C       0.77204   0.72051   0.67298   0.52082
C          C       0.67741   0.78234   0.57921   0.19012
C          C       0.30055   0.85186   0.56689   0.53413
C          C       0.46532   0.84898   0.53221   0.14353
C          C       0.70776   0.82718   0.43821  -0.13971
C          C       0.57307   0.87175   0.40816  -0.15092
C          C       0.87544   0.02818   0.90534   0.10709
C          C       0.79339   0.11776   0.06083  -0.15670
C          C       0.78671   0.99595   0.03714  -0.17174
O          O       0.00748   0.99104   0.29967  -0.57875
O          O       0.13149   0.18621   0.11204  -0.54142
O          O       0.99056   0.55842   0.21417  -0.49711
O          O       0.76989   0.23685   0.31618  -0.51780
O          O       0.74863   0.05625   0.52940  -0.51347
O          O       0.47050   0.20724   0.36319  -0.08733
O          O       0.06305   0.83618   0.15363  -0.08868
O          O       0.09010   0.23573   0.37828  -0.57797
O          O       0.10495   0.59386  -0.00247  -0.56509
O          O       0.28466   0.36966   0.20880  -0.42375
O          O       0.99251   0.00896   0.70033  -0.57879
O          O       0.86850   0.81379   0.88795  -0.54115
O          O       0.00943   0.44157   0.78583  -0.49710
O          O       0.23011   0.76315   0.68382  -0.51768
O          O       0.25137   0.94375   0.47059  -0.51316
O          O       0.52949   0.79276   0.63681  -0.08724
O          O       0.93694   0.16382   0.84637  -0.08878
O          O       0.90989   0.76426   0.62172  -0.57836
O          O       0.89504   0.40614   0.00246  -0.56509
O          O       0.71533   0.63034   0.79120  -0.42362

