data_crystal

_audit_creation_method 'AiiDA-DDEC plugin'

_cell_length_a         7.92515
_cell_length_b        11.40529
_cell_length_c        13.31997

_cell_angle_alpha     95.53323
_cell_angle_beta     107.37162
_cell_angle_gamma     100.16520

_symmetry_space_group_name_Hall 'P 1'
_symmetry_space_group_name_H-M  'P 1'

loop_
_symmetry_equiv_pos_as_xyz
 'x,y,z'

loop_
_atom_site_label
_atom_site_type_symbol
_atom_site_fract_x
_atom_site_fract_y
_atom_site_fract_z
_atom_site_charge
V          V       0.87039   0.69029   0.98254   1.88091
V          V       0.80596   0.44165   0.88030   1.37353
V          V       0.12939   0.30966   0.01760   1.87731
V          V       0.19366   0.55828   0.11975   1.39773
Co         Co      0.49957   0.49999  -0.00008   0.97207
Co         Co     -0.00021  -0.00006  -0.00004   0.67917
H          H       0.08239   0.85145   0.83862   0.10735
H          H       0.09806   0.86501   0.65826   0.11325
H          H       0.85920   0.17843   0.66307   0.11837
H          H       0.84562   0.14863   0.84109   0.09886
H          H       0.91155   0.11058   0.50303   0.10637
H          H       0.65101   0.66628   0.20319   0.10313
H          H       0.82862   0.65888   0.38831   0.11451
H          H       0.90351   0.30972   0.27383   0.11371
H          H       0.70608   0.32758   0.09412   0.11209
H          H       0.04811   0.38536   0.45524   0.10532
H          H       0.91748   0.14852   0.16136   0.10768
H          H       0.90192   0.13499   0.34174   0.11348
H          H       0.14079   0.82159   0.33692   0.11830
H          H       0.15429   0.85135   0.15888   0.09853
H          H       0.08848   0.88943   0.49697   0.10642
H          H       0.34867   0.33372   0.79677   0.10373
H          H       0.17134   0.34117   0.61158   0.11448
H          H       0.09637   0.69035   0.72601   0.11368
H          H       0.29358   0.67242   0.90578   0.11128
H          H       0.95182   0.61467   0.54466   0.10562
C          C       0.03489   0.92284   0.79735   0.07302
C          C       0.04155   0.93065   0.69532  -0.19304
C          C       0.97800   0.02329   0.64081   0.12917
C          C       0.90814   0.10319   0.69744  -0.17836
C          C       0.90248   0.08895   0.79877   0.07133
C          C       0.97143   0.03623   0.53293  -0.14450
C          C       0.70307   0.58694   0.22339   0.07338
C          C       0.80592   0.58253   0.32657  -0.19623
C          C       0.87833   0.47954   0.34955   0.12492
C          C       0.84489   0.38853   0.26222  -0.17745
C          C       0.73597   0.39761   0.16189   0.09863
C          C       0.98699   0.46398   0.45324  -0.14447
C          C       0.96500   0.07714   0.20263   0.07257
C          C       0.95844   0.06936   0.30469  -0.19264
C          C       0.02202   0.97672   0.35919   0.12948
C          C       0.09186   0.89682   0.30255  -0.17898
C          C       0.09744   0.91104   0.20120   0.07063
C          C       0.02860   0.96378   0.46708  -0.14550
C          C       0.29660   0.41305   0.77653   0.07443
C          C       0.19390   0.41748   0.67333  -0.19532
C          C       0.12149   0.52047   0.65034   0.12526
C          C       0.15486   0.61149   0.73764  -0.17773
C          C       0.26365   0.60240   0.83800   0.09788
C          C       0.01292   0.53604   0.54664  -0.14474
N          N       0.96719   0.00092   0.85096  -0.17061
N          N       0.66718   0.49633   0.14077  -0.22321
N          N       0.03259  -0.00098   0.14900  -0.16980
N          N       0.33231   0.50364   0.85914  -0.22197
O          O       0.64054   0.40991   0.93219  -0.81781
O          O       0.66613   0.66750   0.99373  -0.77519
O          O       0.02100   0.64570   0.09632  -0.97264
O          O       0.94723   0.83838   0.97418  -0.84080
O          O       0.86012   0.59729   0.86247  -0.91826
O          O       0.35913   0.59016   0.06787  -0.81719
O          O       0.33352   0.33260   0.00617  -0.77616
O          O       0.97851   0.35427   0.90395  -0.97505
O          O       0.05261   0.16148   0.02581  -0.84054
O          O       0.13983   0.40264   0.13776  -0.91942

