data_crystal

_audit_creation_method 'AiiDA-DDEC plugin'

_cell_length_a        10.21600
_cell_length_b        10.21246
_cell_length_c        11.44819

_cell_angle_alpha     80.50696
_cell_angle_beta     80.54164
_cell_angle_gamma     84.66674

_symmetry_space_group_name_Hall 'P 1'
_symmetry_space_group_name_H-M  'P 1'

loop_
_symmetry_equiv_pos_as_xyz
 'x,y,z'

loop_
_atom_site_label
_atom_site_type_symbol
_atom_site_fract_x
_atom_site_fract_y
_atom_site_fract_z
_atom_site_charge
Cd         Cd      0.53978   0.13532   0.57318   0.81748
Cd         Cd      0.86478   0.46022   0.92671   0.81641
Cd         Cd      0.46021   0.86468   0.42682   0.81741
Cd         Cd      0.13522   0.53978   0.07329   0.81638
Cd         Cd      0.74161   0.25838   0.75000   0.75949
Cd         Cd      0.25839   0.74162   0.25000   0.75951
H          H       0.34321   0.40270   0.66622   0.10491
H          H       0.30406   0.50021   0.52950   0.08913
H          H       0.54499   0.52710   0.65363   0.06667
H          H       0.40315   0.64320   0.64346   0.09863
H          H       0.59696   0.65674   0.83349   0.10560
H          H       0.50003   0.69590   0.97041   0.08906
H          H       0.47234   0.45488   0.84669   0.06880
H          H       0.35644   0.59696   0.85673   0.09826
H          H       0.65678   0.59730   0.33378   0.10494
H          H       0.69593   0.49979   0.47050   0.08899
H          H       0.45500   0.47290   0.34637   0.06685
H          H       0.59684   0.35680   0.35654   0.09866
H          H       0.40303   0.34326   0.16651   0.10561
H          H       0.49996   0.30410   0.02959   0.08901
H          H       0.52766   0.54512   0.15331   0.06881
H          H       0.64355   0.40304   0.14327   0.09820
C          C       0.38502   0.45880   0.58018  -0.01721
C          C       0.46681   0.56748   0.59949  -0.02343
C          C       0.54114   0.61493   0.91967  -0.02002
C          C       0.43221   0.53324   0.90070  -0.02713
C          C       0.61498   0.54120   0.41982  -0.01731
C          C       0.53319   0.43252   0.40051  -0.02369
C          C       0.45885   0.38508   0.08033  -0.01999
C          C       0.56779   0.46676   0.09930  -0.02715
Cl         Cl      0.49867   0.19831   0.78771  -0.41681
Cl         Cl      0.82117   0.21009   0.94938  -0.40740
Cl         Cl      0.49125   0.11441   0.36420  -0.44347
Cl         Cl      0.80178   0.50138   0.71217  -0.41702
Cl         Cl      0.78981   0.17886   0.55065  -0.40759
Cl         Cl      0.88558   0.50877   0.13571  -0.44221
Cl         Cl      0.50132   0.80169   0.21229  -0.41686
Cl         Cl      0.17882   0.78991   0.05062  -0.40735
Cl         Cl      0.50874   0.88559   0.63580  -0.44350
Cl         Cl      0.19821   0.49862   0.28783  -0.41703
Cl         Cl      0.21018   0.82114   0.44935  -0.40750
Cl         Cl      0.11442   0.49123   0.86429  -0.44223
O          O       0.46910   0.36465   0.51397  -0.24816
O          O       0.63538   0.53064   0.98568  -0.24386
O          O       0.53090   0.63535   0.48603  -0.24811
O          O       0.36461   0.46936   0.01432  -0.24378

