data_crystal

_audit_creation_method 'AiiDA-DDEC plugin'

_cell_length_a         7.97373
_cell_length_b         9.77320
_cell_length_c        19.71613

_cell_angle_alpha     90.06894
_cell_angle_beta     89.95341
_cell_angle_gamma     100.95912

_symmetry_space_group_name_Hall 'P 1'
_symmetry_space_group_name_H-M  'P 1'

loop_
_symmetry_equiv_pos_as_xyz
 'x,y,z'

loop_
_atom_site_label
_atom_site_type_symbol
_atom_site_fract_x
_atom_site_fract_y
_atom_site_fract_z
_atom_site_charge
Zn         Zn      0.27049   0.16171   0.29424   0.95733
Zn         Zn      0.63729   0.06962   0.25789   0.99533
Zn         Zn      0.72680   0.83832   0.79298   0.95718
Zn         Zn      0.36157   0.93034   0.75942   0.99583
H          H       0.98521   0.22957   0.29465   0.35469
H          H       0.93223   0.36217   0.38381   0.06076
H          H       0.98069   0.20225   0.41391   0.05770
H          H       0.24283   0.47798   0.40123   0.14161
H          H       0.28528   0.31854   0.43432   0.13760
H          H       0.14698   0.40967   0.47854   0.14329
H          H       0.01409   0.77047   0.79493   0.35462
H          H       0.06715   0.63816   0.88351   0.06126
H          H       0.01946   0.79780   0.91449   0.05816
H          H       0.75714   0.52233   0.90112   0.14088
H          H       0.71443   0.68163   0.93445   0.13726
H          H       0.85272   0.59039   0.97860   0.14258
C          C       0.47113   0.19195   0.04860   0.16406
C          C       0.51486   0.15741   0.98313   0.15804
C          C       0.47414   0.02057   0.95968  -0.20883
C          C       0.38468   0.91860   0.00268   0.15107
C          C       0.34197   0.95235   0.06823   0.15904
C          C       0.38767   0.08906   0.09282  -0.22349
C          C       0.34938   0.11543   0.16556   0.63439
C          C       0.51480   0.98212   0.88865   0.64844
C          C       0.85342   0.71543   0.22305   0.15691
C          C       0.77814   0.57457   0.22345   0.16647
C          C       0.70394   0.51218   0.28277  -0.21222
C          C       0.70932   0.59294   0.34168   0.15912
C          C       0.78882   0.73330   0.34165   0.16942
C          C       0.85918   0.79651   0.28180  -0.22682
C          C       0.95198   0.94584   0.27881   0.65092
C          C       0.61526   0.36208   0.28197   0.64371
C          C       0.03415   0.30178   0.38933   0.13722
C          C       0.18643   0.38162   0.42774  -0.41963
C          C       0.52861   0.80857   0.54707   0.16320
C          C       0.48537   0.84296   0.48155   0.15879
C          C       0.52576   0.97971   0.45812  -0.20983
C          C       0.61501   0.08169   0.50119   0.15175
C          C       0.65755   0.04811   0.56672   0.15762
C          C       0.61146   0.91162   0.59146  -0.22060
C          C       0.64896   0.88428   0.66428   0.63487
C          C       0.48288   0.01777   0.38733   0.64714
C          C       0.14700   0.28444   0.72454   0.15537
C          C       0.22169   0.42533   0.72504   0.16702
C          C       0.29668   0.48751   0.78430  -0.21235
C          C       0.29063   0.40678   0.84318   0.15776
C          C       0.21055   0.26640   0.84309   0.17118
C          C       0.14072   0.20305   0.78311  -0.22754
C          C       0.04762   0.05373   0.77835   0.64946
C          C       0.38600   0.63750   0.78352   0.64767
C          C       0.96547   0.69876   0.88953   0.13541
C          C       0.81334   0.61857   0.92785  -0.41731
O          O       0.41915   0.04577   0.21027  -0.61187
O          O       0.24914   0.19316   0.18231  -0.46452
O          O       0.61996   0.90212   0.88169  -0.52410
O          O       0.43235   0.03329   0.84254  -0.56081
O          O       0.10588   0.96798   0.29676  -0.49421
O          O       0.87484   0.04040   0.25565  -0.56532
O          O       0.71132   0.27345   0.26946  -0.56830
O          O       0.45751   0.33994   0.29299  -0.51671
O          O       0.08715   0.27359   0.32007  -0.47153
O          O       0.57628   0.95128   0.70952  -0.61341
O          O       0.75029   0.80747   0.68058  -0.46370
O          O       0.37845   0.09890   0.38110  -0.52492
O          O       0.56196   0.96526   0.34064  -0.55741
O          O       0.89323   0.03120   0.79553  -0.49395
O          O       0.12498   0.96029   0.75381  -0.56361
O          O       0.29057   0.72642   0.77102  -0.57124
O          O       0.54366   0.65939   0.79456  -0.51576
O          O       0.91183   0.72856   0.82072  -0.47392
F          F       0.51632   0.32629   0.06797  -0.09400
F          F       0.59952   0.25950   0.94274  -0.09685
F          F       0.33356   0.78654   0.97981  -0.10135
F          F       0.25043   0.85296   0.10783  -0.09076
F          F       0.92454   0.77345   0.16503  -0.10048
F          F       0.77428   0.50033   0.16532  -0.09844
F          F       0.64179   0.53367   0.40014  -0.09683
F          F       0.80017   0.80632   0.40039  -0.10090
F          F       0.48365   0.67400   0.56613  -0.09417
F          F       0.40063   0.74075   0.44115  -0.09756
F          F       0.66658   0.21352   0.47814  -0.10125
F          F       0.74988   0.14736   0.60621  -0.09096
F          F       0.07543   0.22646   0.66661  -0.09900
F          F       0.22506   0.49989   0.66712  -0.09845
F          F       0.35800   0.46614   0.90172  -0.09678
F          F       0.19961   0.19369   0.90185  -0.10044

