data_crystal

_audit_creation_method 'AiiDA-DDEC plugin'

_cell_length_a         4.09249
_cell_length_b        17.83849
_cell_length_c        17.85312

_cell_angle_alpha     89.07999
_cell_angle_beta     83.15000
_cell_angle_gamma     83.35085

_symmetry_space_group_name_Hall 'P 1'
_symmetry_space_group_name_H-M  'P 1'

loop_
_symmetry_equiv_pos_as_xyz
 'x,y,z'

loop_
_atom_site_label
_atom_site_type_symbol
_atom_site_fract_x
_atom_site_fract_y
_atom_site_fract_z
_atom_site_charge
Cu         Cu      0.29359   0.02901   0.74816   0.98800
Cu         Cu      0.07927   0.47494   0.75289   0.98464
Cu         Cu      0.82791   0.74827   0.47109   0.98811
Cu         Cu      0.05390   0.75330   0.02869   0.98547
Cu         Cu      0.70642   0.97100   0.25184   0.98804
Cu         Cu      0.92074   0.52506   0.24711   0.98469
Cu         Cu      0.17210   0.25173   0.52891   0.98813
Cu         Cu      0.94611   0.24670   0.97131   0.98552
H          H       0.86049   0.95219   0.93174   0.13039
H          H       0.12843   0.95597   0.97620   0.08238
H          H       0.74611   0.54876   0.56614   0.12764
H          H       0.06132   0.54266   0.52520   0.07801
H          H       0.31342   0.93254   0.54777   0.12797
H          H       0.58596   0.97470   0.54290   0.07908
H          H       0.79424   0.56732   0.95216   0.12678
H          H       0.10411   0.52595   0.95737   0.07943
H          H       0.13952   0.04781   0.06826   0.13029
H          H       0.87159   0.04403   0.02381   0.08253
H          H       0.25390   0.45124   0.43386   0.12757
H          H       0.93869   0.45733   0.47480   0.07811
H          H       0.68659   0.06745   0.45223   0.12787
H          H       0.41406   0.02530   0.45710   0.07916
H          H       0.20577   0.43268   0.04784   0.12672
H          H       0.89590   0.47405   0.04263   0.07955
C          C       0.49094   0.00490   0.86855   0.59448
C          C       0.61255   0.98602   0.94296  -0.12990
C          C       0.37336   0.95014   0.99793  -0.11221
C          C       0.44425   0.86888   0.02040   0.61072
C          C       0.36571   0.49767   0.63163   0.59072
C          C       0.54239   0.51471   0.55646  -0.12702
C          C       0.32085   0.54992   0.50216  -0.10830
C          C       0.32303   0.63180   0.48025   0.61061
C          C      -0.00118   0.86869   0.49525   0.59382
C          C       0.09966   0.94325   0.51404  -0.12562
C          C       0.82254   0.99729   0.54990  -0.11133
C          C       0.80277   0.01908   0.63164   0.61411
C          C       0.36379   0.63207   0.00503   0.59685
C          C       0.55668   0.55701   0.98644  -0.12725
C          C       0.37103   0.50331   0.95041  -0.10938
C          C       0.46172   0.48265   0.86876   0.61089
C          C       0.50908   0.99510   0.13145   0.59454
C          C       0.38746   0.01398   0.05704  -0.12998
C          C       0.62665   0.04986   0.00207  -0.11229
C          C       0.55577   0.13112   0.97960   0.61083
C          C       0.63430   0.50233   0.36837   0.59110
C          C       0.45763   0.48528   0.44354  -0.12713
C          C       0.67916   0.45008   0.49784  -0.10830
C          C       0.67698   0.36820   0.51975   0.61085
C          C       0.00119   0.13131   0.50475   0.59374
C          C       0.90035   0.05675   0.48596  -0.12557
C          C       0.17747   0.00271   0.45010  -0.11130
C          C       0.19724   0.98093   0.36836   0.61418
C          C       0.63622   0.36793   0.99497   0.59672
C          C       0.44333   0.44299   0.01356  -0.12733
C          C       0.62898   0.49669   0.04959  -0.10941
C          C       0.53829   0.51735   0.13124   0.61087
O          O       0.25040   0.97289   0.84812  -0.51579
O          O       0.61909   0.05190   0.82245  -0.53741
O          O       0.20936   0.84412   0.06435  -0.54985
O          O       0.71916   0.83324   0.99279  -0.56116
O          O       0.07279   0.53017   0.65252  -0.51371
O          O       0.49595   0.45133   0.67785  -0.53419
O          O       0.10390   0.65566   0.43709  -0.54674
O          O       0.52803   0.66906   0.50775  -0.56311
O          O       0.72539   0.84778   0.52691  -0.51511
O          O       0.17671   0.82298   0.44852  -0.53773
O          O       0.53945   0.06218   0.65545  -0.54756
O          O       0.03684   0.99195   0.66871  -0.56424
O          O       0.10301   0.65392   0.97318  -0.51690
O          O       0.45045   0.67770   0.05125  -0.53590
O          O       0.27031   0.43939   0.84385  -0.54717
O          O       0.70791   0.51092   0.83315  -0.56257
O          O       0.74961   0.02711   0.15188  -0.51575
O          O       0.38092   0.94810   0.17755  -0.53746
O          O       0.79066   0.15588   0.93565  -0.54982
O          O       0.28085   0.16676   0.00721  -0.56131
O          O       0.92723   0.46983   0.34748  -0.51367
O          O       0.50406   0.54867   0.32215  -0.53457
O          O       0.89612   0.34434   0.56291  -0.54676
O          O       0.47198   0.33094   0.49225  -0.56330
O          O       0.27462   0.15222   0.47310  -0.51491
O          O       0.82331   0.17702   0.55148  -0.53784
O          O       0.46056   0.93782   0.34455  -0.54745
O          O       0.96317   0.00805   0.33129  -0.56443
O          O       0.89700   0.34608   0.02682  -0.51667
O          O       0.54957   0.32230   0.94875  -0.53600
O          O       0.72970   0.56061   0.15615  -0.54715
O          O       0.29209   0.48908   0.16685  -0.56256

