data_crystal

_audit_creation_method 'AiiDA-DDEC plugin'

_cell_length_a         7.31860
_cell_length_b        11.44841
_cell_length_c        13.97707

_cell_angle_alpha     113.59866
_cell_angle_beta     92.53408
_cell_angle_gamma     105.55323

_symmetry_space_group_name_Hall 'P 1'
_symmetry_space_group_name_H-M  'P 1'

loop_
_symmetry_equiv_pos_as_xyz
 'x,y,z'

loop_
_atom_site_label
_atom_site_type_symbol
_atom_site_fract_x
_atom_site_fract_y
_atom_site_fract_z
_atom_site_charge
Cd         Cd     -0.00461  -0.00096  -0.00140   0.92142
Cd         Cd     -0.00067  -0.00096   0.50005   0.90428
Ni         Ni      0.50973   0.07011   0.26028   0.35997
Ni         Ni      0.48638   0.92222   0.73721   0.15116
H          H       0.22827   0.19279   0.93442   0.29391
H          H       0.12660   0.25245   0.04021   0.28131
H          H       0.02180   0.22901   0.82548   0.05192
H          H       0.69173   0.23131   0.86386   0.09559
H          H       0.71204   0.14752   0.94377   0.09563
H          H       0.88232   0.36175   0.09950   0.08689
H          H       0.87000   0.45179   0.02469   0.06506
H          H       0.50174   0.35494   0.98865   0.07633
H          H       0.52110   0.27534   0.07185   0.09411
H          H       0.69712   0.49928   0.22210   0.08074
H          H       0.67624   0.57682   0.13904   0.06251
H          H       0.31072   0.48627   0.11260   0.07881
H          H       0.33395   0.41209   0.19854   0.08718
H          H       0.49957   0.64028   0.34741   0.09160
H          H       0.48863   0.71384   0.26031   0.07991
H          H       0.12041   0.61553   0.22220   0.07912
H          H       0.13599   0.55470   0.31822   0.08836
H          H       0.29879   0.85146   0.36201   0.08122
H          H       0.29377   0.78992   0.45852   0.08870
H          H       0.94662   0.72280   0.42720   0.29305
H          H       0.93849   0.75984   0.32480   0.27254
H          H       0.77558   0.81342   0.06460   0.29332
H          H       0.86606   0.74102   0.95671   0.28503
H          H       0.97893   0.77648   0.17358   0.05014
H          H       0.30761   0.77088   0.13683   0.08987
H          H       0.29327   0.85412   0.05572   0.09565
H          H       0.11993   0.63957   0.90062   0.08858
H          H       0.13169   0.55050   0.97642   0.06511
H          H       0.50004   0.64587   0.01155   0.07783
H          H       0.48090   0.72539   0.92831   0.09267
H          H       0.30289   0.50153   0.77834   0.08126
H          H       0.32405   0.42419   0.86153   0.06158
H          H       0.68924   0.51379   0.88713   0.07822
H          H       0.66590   0.58774   0.80095   0.08726
H          H       0.49987   0.35952   0.65242   0.09195
H          H       0.51116   0.28610   0.73975   0.07932
H          H       0.87932   0.38570   0.77813   0.07792
H          H       0.86350   0.44481   0.68104   0.08931
H          H       0.69707   0.14942   0.63955   0.08170
H          H       0.70946   0.20876   0.54167   0.08743
H          H       0.05144   0.26860   0.57104   0.28747
H          H       0.06206   0.24354   0.67910   0.27453
C          C       0.65012   0.97991   0.30697  -0.03502
C          C       0.69008   0.09949   0.17397  -0.04437
C          C       0.39387   0.12560   0.38823  -0.07141
C          C       0.31794   0.09881   0.18633   0.00130
C          C       0.97475   0.22484   0.89889   0.06780
C          C       0.78532   0.23558   0.92994  -0.21627
C          C       0.79514   0.35948   0.03201  -0.14699
C          C       0.59453   0.36217   0.05691  -0.14711
C          C       0.60293   0.49014   0.15407  -0.15044
C          C       0.40472   0.49799   0.18191  -0.15938
C          C       0.41100   0.62872   0.27624  -0.14958
C          C       0.20851   0.63566   0.29649  -0.18863
C          C       0.21451   0.77194   0.38240   0.01058
C          C       0.31988   0.98154   0.67878   0.03594
C          C       0.33273   0.92810   0.83952   0.04813
C          C       0.63922   0.91112   0.63512   0.03781
C          C       0.65923   0.87458   0.80278   0.06634
C          C       0.02668   0.77927   0.09974   0.07388
C          C       0.21639   0.76680   0.06985  -0.22099
C          C       0.20680   0.64221   0.96836  -0.14127
C          C       0.40721   0.63877   0.94341  -0.15057
C          C       0.39750   0.51053   0.84615  -0.14895
C          C       0.59511   0.50209   0.81787  -0.16204
C          C       0.58854   0.37124   0.72361  -0.14783
C          C       0.79126   0.36455   0.70351  -0.18887
C          C       0.78502   0.22750   0.61886   0.00941
N          N       0.76774   0.96143   0.35454  -0.35009
N          N       0.76859   0.07433   0.10001  -0.36439
N          N       0.28106   0.11094   0.44400  -0.36867
N          N       0.22289   0.13667   0.14281  -0.37488
N          N       0.09914   0.19377   0.95976  -0.56216
N          N       0.01926   0.78678   0.39687  -0.55677
N          N       0.21337   0.02139   0.64403  -0.38606
N          N       0.23222   0.93022   0.90333  -0.37898
N          N       0.73920   0.90124   0.57076  -0.39249
N          N       0.77307   0.84942   0.84700  -0.40807
N          N       0.90034   0.80565   0.03615  -0.56202
N          N       0.97982   0.21051   0.60606  -0.55433

