data_crystal

_audit_creation_method 'AiiDA-DDEC plugin'

_cell_length_a        11.44453
_cell_length_b        11.69900
_cell_length_c        11.86160

_cell_angle_alpha     64.68762
_cell_angle_beta     81.43415
_cell_angle_gamma     72.15510

_symmetry_space_group_name_Hall 'P 1'
_symmetry_space_group_name_H-M  'P 1'

loop_
_symmetry_equiv_pos_as_xyz
 'x,y,z'

loop_
_atom_site_label
_atom_site_type_symbol
_atom_site_fract_x
_atom_site_fract_y
_atom_site_fract_z
_atom_site_charge
Co         Co     -0.00006   0.00017   0.00006   0.87468
Co         Co      0.00033  -0.00014   0.49973   0.84330
Co         Co     -0.00017   0.49944   0.50078   0.78131
H          H       0.55414   0.56344   0.66788   0.12333
H          H       0.21021   0.01812   0.30069   0.10645
H          H       0.13908   0.19135   0.98570   0.11520
H          H       0.36562   0.58501   0.63734   0.11138
H          H       0.84681   0.27413   0.35970   0.11970
H          H       0.64688   0.79779   0.01988   0.12141
H          H       0.74647   0.19897   0.96307   0.10911
H          H       0.42664   0.89130   0.28497   0.11027
H          H       0.47343   0.79410   0.03145   0.12035
H          H       0.21964   0.53499   0.32787   0.09936
H          H       0.35313   0.20220   0.98012   0.12203
H          H       0.57337   0.10870   0.71502   0.10777
H          H       0.78979   0.98192   0.69932   0.10256
H          H       0.80963   0.62893   0.28633   0.09730
H          H       0.78042   0.46504   0.67210   0.10258
H          H       0.52658   0.20589   0.96855   0.12118
H          H       0.44589   0.43655   0.33212   0.11860
H          H       0.63441   0.41497   0.36265   0.10808
H          H       0.19036   0.37111   0.71367   0.09592
H          H       0.86092   0.80864   0.01431   0.11546
H          H       0.25355   0.80103   0.03694   0.10880
H          H       0.15324   0.72582   0.64033   0.11701
H          H       0.41612   0.26779   0.73415   0.10344
H          H       0.58390   0.73220   0.26585   0.10853
C          C       0.26706   0.47611   0.41621   0.09456
C          C       0.45152   0.34261   0.53364   0.09583
C          C       0.37650   0.32671   0.64225  -0.19250
C          C       0.03807   0.97069   0.76806   0.55571
C          C       0.40289   0.88506   0.02080  -0.18460
C          C       0.71899   0.11155   0.97644   0.10112
C          C       0.56496   0.00058  -0.00278   0.08908
C          C       0.24836   0.92137   0.37337   0.10908
C          C       0.96168   0.03025   0.23300   0.56754
C          C       0.63126   0.15029   0.63492  -0.18491
C          C       0.39313   0.42221   0.41970  -0.17745
C          C       0.01711   0.11156   0.73119  -0.02123
C          C       0.54845   0.65742   0.46637   0.10290
C          C       0.95230   0.75238   0.51287   0.59545
C          C       0.66335   0.89003   0.00804  -0.17590
C          C       0.97886   0.77822   0.37994  -0.04641
C          C       0.75146   0.07867   0.62670   0.08372
C          C       0.78328   0.24118   0.43684   0.09378
C          C       0.59714   0.11497   0.97910  -0.18408
C          C       0.25066   0.38445   0.63073   0.07977
C          C       0.02104   0.22205   0.62009  -0.01947
C          C       0.98298   0.88797   0.26897  -0.03221
C          C       0.28102   0.88842   0.02363   0.10244
C          C       0.43504  -0.00062   0.00285   0.08298
C          C       0.73304   0.52373   0.58404   0.11501
C          C       0.60696   0.57774   0.58021  -0.16947
C          C       0.36876   0.84964   0.36505  -0.18237
C          C       0.78287   0.89422   0.00503   0.10153
C          C       0.04753   0.24814   0.48758   0.53296
C          C       0.58331   0.27198   0.53783   0.08532
C          C       0.62355   0.67323   0.35772  -0.18791
C          C       0.21687   0.75887   0.56296   0.10714
C          C       0.74908   0.61563   0.36919   0.11776
C          C       0.66406   0.31855   0.43830  -0.18415
C          C       0.21710   0.10576   0.99505   0.10355
C          C       0.41667   0.72804   0.46216   0.08379
C          C       0.33601   0.68130   0.56174  -0.17577
C          C       0.33667   0.10999   0.99187  -0.17309
N          N       0.99488   0.32525   0.65324  -0.23359
N          N       0.81199   0.00386   0.99002  -0.22719
N          N       0.18800   0.99615   0.00990  -0.24941
N          N       0.02441   0.71471   0.22333  -0.06886
N          N       0.19614   0.45717   0.51994  -0.17662
N          N       0.00446   0.67354   0.34809  -0.19706
N          N       0.82651   0.12125   0.52854  -0.17889
N          N       0.98969   0.15489   0.82458  -0.24753
N          N       0.17440   0.87822   0.47279  -0.25800
N          N       0.01041   0.84448   0.17585  -0.27503
N          N       0.97567   0.28518   0.77615  -0.08042
N          N       0.80491   0.54392   0.47883  -0.32136
O          O       0.04501   0.92344   0.68477  -0.53003
O          O       0.95313   0.10167   0.11508  -0.57375
O          O       0.04696   0.89835   0.88416  -0.56338
O          O       0.95427   0.63423   0.58485  -0.51308
O          O       0.92622   0.84400   0.55082  -0.62468
O          O       0.04558   0.36668   0.41406  -0.54326
O          O       0.95434   0.07721   0.31264  -0.53841
O          O       0.07347   0.15520   0.45018  -0.47403

