data_crystal

_audit_creation_method 'AiiDA-DDEC plugin'

_cell_length_a         7.73280
_cell_length_b        11.94375
_cell_length_c        13.15458

_cell_angle_alpha     91.51313
_cell_angle_beta     106.07228
_cell_angle_gamma     95.38282

_symmetry_space_group_name_Hall 'P 1'
_symmetry_space_group_name_H-M  'P 1'

loop_
_symmetry_equiv_pos_as_xyz
 'x,y,z'

loop_
_atom_site_label
_atom_site_type_symbol
_atom_site_fract_x
_atom_site_fract_y
_atom_site_fract_z
_atom_site_charge
Cd         Cd      0.11766   0.24968   0.19893   0.85437
Cd         Cd      0.88432   0.75021   0.80109   0.85595
Ni         Ni      0.50255   0.99169   0.00899   0.36117
Ni         Ni      0.99417   0.49903   0.49744   0.36047
H          H       0.28182   0.06247   0.29438   0.28723
H          H       0.14008   0.08871   0.36472   0.29491
H          H       0.47456   0.13152   0.46444   0.06606
H          H       0.33573   0.23759   0.46547   0.10077
H          H       0.55880   0.21266   0.30750   0.08810
H          H       0.62420   0.30692   0.42352   0.08587
H          H       0.38826   0.41186   0.34776   0.29754
H          H       0.47067   0.38334   0.25283   0.28853
H          H       0.88571   0.31640   0.01336   0.29298
H          H       0.08485   0.31939   0.98837   0.29140
H          H       0.97616   0.49562   0.11165   0.09033
H          H       0.18587   0.50084   0.08268   0.08907
H          H       0.71794   0.93734   0.70601   0.28690
H          H       0.86050   0.91073   0.63619   0.29455
H          H       0.52577   0.86858   0.53583   0.06572
H          H       0.66436   0.76254   0.53464   0.09900
H          H       0.44078   0.78726   0.69227   0.08770
H          H       0.37574   0.69285   0.57643   0.08371
H          H       0.61175   0.58806   0.65255   0.29515
H          H       0.52972   0.61703   0.74761   0.28890
H          H       0.11560   0.68371   0.98727   0.28753
H          H       0.91484   0.68156   0.01005   0.29096
H          H       0.02407   0.50440   0.88806   0.09215
H          H       0.81461   0.49984   0.91731   0.08915
C          C       0.36390   0.11209   0.03920  -0.03640
C          C       0.72383   0.06517   0.09975  -0.05084
C          C       0.98960   0.42444   0.36621  -0.04370
C          C       0.22472   0.43679   0.57132  -0.11039
C          C       0.38845   0.18665   0.41314  -0.02179
C          C       0.50825   0.26337   0.36212  -0.01156
C          C       0.04094   0.47167   0.05150  -0.03293
C          C       0.63657   0.91746   0.92513  -0.03415
C          C       0.28338   0.90319   0.93478  -0.05891
C          C       0.03191   0.60462   0.62636  -0.04810
C          C       0.74553   0.53231   0.44630  -0.10429
C          C       0.61165   0.81335   0.58706  -0.02075
C          C       0.49160   0.73648   0.63781  -0.00870
C          C       0.95965   0.52867   0.94831  -0.03249
N          N       0.28287   0.15741   0.08942  -0.37456
N          N       0.85549   0.12598   0.13576  -0.36703
N          N       0.97277   0.36232   0.29071  -0.39957
N          N       0.38128   0.42855   0.59841  -0.35968
N          N       0.23570   0.12434   0.33183  -0.55926
N          N       0.39931   0.34595   0.29929  -0.56420
N          N       0.02023   0.34659   0.04144  -0.55155
N          N       0.71941   0.84633   0.90586  -0.37613
N          N       0.14514   0.86975   0.87171  -0.36517
N          N       0.02661   0.63813   0.70983  -0.39663
N          N       0.61365   0.57300   0.39952  -0.36215
N          N       0.76413   0.87543   0.66863  -0.55810
N          N       0.60087   0.65414   0.70093  -0.56569
N          N       0.98114   0.65359   0.95825  -0.55145

