data_crystal

_audit_creation_method 'AiiDA-DDEC plugin'

_cell_length_a         8.58226
_cell_length_b         8.58251
_cell_length_c        15.88929

_cell_angle_alpha     90.02264
_cell_angle_beta     89.97710
_cell_angle_gamma     90.49787

_symmetry_space_group_name_Hall 'P 1'
_symmetry_space_group_name_H-M  'P 1'

loop_
_symmetry_equiv_pos_as_xyz
 'x,y,z'

loop_
_atom_site_label
_atom_site_type_symbol
_atom_site_fract_x
_atom_site_fract_y
_atom_site_fract_z
_atom_site_charge
Cd         Cd      0.05769   0.94230   0.67794   0.73154
Cd         Cd      0.65428   0.34571   0.81307   0.81468
Cd         Cd      0.35834   0.64166   0.72732   0.71219
Cd         Cd      0.94233   0.05767   0.17776   0.73173
Cd         Cd      0.34579   0.65421   0.31318   0.81456
Cd         Cd      0.64159   0.35840   0.22725   0.71213
H          H       0.74254   0.70739   0.74371   0.09113
H          H       0.07302   0.37797   0.81809   0.10301
H          H       0.25727   0.29226   0.24406   0.09118
H          H       0.92689   0.62219   0.31818   0.10270
H          H       0.70775   0.74277   0.24406   0.09095
H          H       0.37774   0.07310   0.31817   0.10261
H          H       0.29259   0.25741   0.74371   0.09101
H          H       0.62208   0.92699   0.81808   0.10294
H          H       0.42357   0.57646   0.51378   0.11304
H          H       0.09058   0.90939   0.44478   0.10839
H          H       0.57658   0.42339   0.01372   0.11325
H          H       0.90964   0.09039   0.94452   0.10758
C          C       0.85195   0.65038   0.75667   0.13738
C          C       0.01932   0.48216   0.79360   0.15007
C          C       0.14793   0.34958   0.25682   0.13803
C          C       0.98054   0.51796   0.29364   0.14974
C          C       0.65039   0.85210   0.25682   0.13817
C          C       0.48201   0.01949   0.29363   0.14983
C          C       0.34964   0.14802   0.75668   0.13737
C          C       0.51787   0.98065   0.79359   0.14989
C          C       0.33459   0.66542   0.51650   0.14155
C          C       0.16565   0.83433   0.48137   0.12947
C          C       0.66558   0.33440   0.01641   0.14064
C          C       0.83451   0.16550   0.98112   0.13260
N          N       0.99128   0.71009   0.73695  -0.20959
N          N       0.09967   0.60142   0.76082  -0.20005
N          N       0.86378   0.50791   0.79221  -0.31762
N          N       0.00865   0.29000   0.23689  -0.20917
N          N       0.90025   0.39889   0.26057  -0.19994
N          N       0.13604   0.49202   0.29246  -0.31851
N          N       0.70998   0.99137   0.23689  -0.20922
N          N       0.60108   0.09977   0.26056  -0.20015
N          N       0.50794   0.86399   0.29245  -0.31816
N          N       0.28992   0.00870   0.73695  -0.20929
N          N       0.39860   0.90030   0.76081  -0.20001
N          N       0.49211   0.13618   0.79221  -0.31764
N          N       0.27807   0.72193   0.58825  -0.21860
N          N       0.16864   0.83134   0.56553  -0.20539
N          N       0.26787   0.73212   0.44799  -0.33077
N          N       0.72208   0.27791   0.08810  -0.21873
N          N       0.83152   0.16849   0.06529  -0.20657
N          N       0.73229   0.26771   0.94782  -0.33174
Cl         Cl      0.86210   0.13796   0.70274  -0.51934
Cl         Cl      0.54657   0.45341   0.65899  -0.47810
Cl         Cl      0.45499   0.54495   0.87606  -0.50696
Cl         Cl      0.13783   0.86210   0.20298  -0.51941
Cl         Cl      0.45327   0.54675   0.15920  -0.47758
Cl         Cl      0.54507   0.45499   0.37611  -0.50684

