data_crystal

_audit_creation_method 'AiiDA-DDEC plugin'

_cell_length_a         9.01588
_cell_length_b        10.87873
_cell_length_c        14.10544

_cell_angle_alpha     105.21121
_cell_angle_beta     102.04138
_cell_angle_gamma     107.09214

_symmetry_space_group_name_Hall 'P 1'
_symmetry_space_group_name_H-M  'P 1'

loop_
_symmetry_equiv_pos_as_xyz
 'x,y,z'

loop_
_atom_site_label
_atom_site_type_symbol
_atom_site_fract_x
_atom_site_fract_y
_atom_site_fract_z
_atom_site_charge
U          U       0.86010   0.17970   0.09000   1.95087
U          U       0.11020   0.68717   0.49240   1.87430
U          U       0.14122   0.82044   0.91076   1.93725
U          U       0.88989   0.31307   0.50786   1.87490
H          H       0.95429   0.63546   0.07940   0.12701
H          H       0.87437   0.97123   0.27695   0.09792
H          H       0.83235   0.84442   0.39853   0.09990
H          H       0.82009   0.60710   0.35148   0.08613
H          H       0.89650   0.42505   0.31711   0.35234
H          H       0.74029   0.43773   0.38435   0.41688
H          H       0.52635  -0.00259   0.39670   0.12009
H          H       0.23981   0.58364   0.18471   0.11084
H          H       0.32804   0.64615   0.04069   0.10712
H          H       0.52272   0.88245   0.07511   0.06947
H          H       0.04568   0.36445   0.92060   0.12644
H          H       0.12590   0.02890   0.72299   0.09811
H          H       0.16768   0.15562   0.60136   0.09965
H          H       0.17991   0.39294   0.64849   0.08625
H          H       0.10363   0.57492   0.68289   0.35181
H          H       0.25998   0.56250   0.61570   0.41643
H          H       0.47383   0.00285   0.60356   0.11921
H          H       0.76028   0.41637   0.81544   0.11072
H          H       0.67183   0.35360   0.95924   0.10588
H          H       0.47738   0.11756   0.92496   0.06822
C          C       0.92639   0.48002   0.19073   0.47113
C          C       0.90881   0.60823   0.21837  -0.07010
C          C       0.92816   0.68084   0.14917  -0.05693
C          C       0.91907   0.81049   0.17067  -0.06519
C          C       0.88624   0.87163   0.26308  -0.11286
C          C       0.86424   0.80099   0.33022  -0.07607
C          C       0.87543   0.67060   0.31115  -0.31674
C          C       0.94233   0.88059   0.09696   0.64461
C          C       0.66074   0.08573   0.25595   0.54961
C          C       0.53964   0.95784   0.23778  -0.07583
C          C       0.48478   0.92310   0.31830  -0.10393
C          C       0.37487   0.79119   0.29691  -0.04074
C          C       0.31864   0.68784   0.19718  -0.12947
C          C       0.36994   0.72370   0.11736  -0.10936
C          C       0.47401   0.85702   0.13519  -0.19127
C          C       0.30750   0.76230   0.37833   0.55863
C          C       0.07353   0.51993   0.80926   0.46970
C          C       0.09114   0.39160   0.78159  -0.07105
C          C       0.07192   0.31909   0.85083  -0.05636
C          C       0.08140   0.18966   0.82936  -0.06949
C          C       0.11399   0.12839   0.73690  -0.11169
C          C       0.13585   0.19905   0.66973  -0.07547
C          C       0.12464   0.32939   0.68882  -0.31741
C          C       0.05826   0.11965   0.90335   0.64600
C          C       0.33954   0.91439   0.74419   0.55042
C          C       0.46047   0.04235   0.76232  -0.07591
C          C       0.51536   0.07720   0.68191  -0.10286
C          C       0.62521   0.20884   0.70301  -0.04115
C          C       0.68126   0.31224   0.80282  -0.12911
C          C       0.63000   0.27619   0.88255  -0.10992
C          C       0.52614   0.14299   0.86489  -0.19197
C          C       0.69252   0.23762   0.62162   0.55773
O          O       0.93916   0.40469   0.25661  -0.59272
O          O       0.92883   0.41421   0.10080  -0.61443
O          O       0.91612   0.99359   0.11152  -0.68810
O          O       0.98697   0.82910   0.01929  -0.70240
O          O       0.85122   0.47344   0.42988  -0.98979
O          O       0.26657   0.64051   0.38568  -0.61889
O          O       0.27774   0.85575   0.44159  -0.60513
O          O       0.69000   0.12054   0.17663  -0.73719
O          O       0.75433   0.16969   0.35037  -0.73262
O          O       0.06114   0.59548   0.74359  -0.58741
O          O       0.07088   0.58551   0.89915  -0.61320
O          O       0.08421   0.00639   0.88917  -0.69306
O          O       0.01288   0.17078   0.98059  -0.69901
O          O       0.14868   0.52630   0.57010  -0.98905
O          O       0.73329   0.35944   0.61429  -0.61889
O          O       0.72261   0.14428   0.55830  -0.60550
O          O       0.31075   0.87931   0.82353  -0.73471
O          O       0.24586   0.83042   0.64979  -0.73255

