data_crystal

_audit_creation_method 'AiiDA-DDEC plugin'

_cell_length_a         9.14926
_cell_length_b        12.32512
_cell_length_c        12.70161

_cell_angle_alpha     89.70761
_cell_angle_beta     90.00451
_cell_angle_gamma     99.24960

_symmetry_space_group_name_Hall 'P 1'
_symmetry_space_group_name_H-M  'P 1'

loop_
_symmetry_equiv_pos_as_xyz
 'x,y,z'

loop_
_atom_site_label
_atom_site_type_symbol
_atom_site_fract_x
_atom_site_fract_y
_atom_site_fract_z
_atom_site_charge
Cd         Cd      0.76730   0.61102   0.09148   0.98230
Cd         Cd      0.76741   0.96695   0.21167   0.94923
Cd         Cd      0.75510   0.66804   0.44026   1.03361
Cd         Cd      0.77291   0.11331   0.91003   0.98234
Cd         Cd      0.76653   0.46841   0.78896   0.94975
Cd         Cd      0.75507   0.16928   0.56204   1.03114
H          H       0.02542   0.84773   0.33091   0.38107
H          H       0.15098   0.57657   0.98017   0.28395
H          H       0.39752   0.01808   0.12117   0.28882
H          H       0.30389   0.62679   0.29432   0.16552
H          H       0.24182   0.80828   0.38325   0.16802
H          H       0.79441   0.90699   0.77705   0.14349
H          H       0.02659   0.34817   0.66883   0.38364
H          H       0.15558   0.07637   0.01956   0.28359
H          H       0.39638   0.51825   0.87844   0.28880
H          H       0.30547   0.12339   0.70386   0.16753
H          H       0.24033   0.30629   0.62018   0.16703
H          H       0.80361   0.40637   0.22418   0.14113
C          C       0.97347   0.64206   0.29500   0.55600
C          C       0.08247   0.62130   0.21527   0.02392
C          C       0.23498   0.61785   0.22449  -0.21138
C          C       0.28107   0.59816   0.12287   0.04489
C          C       0.43272   0.59278   0.08167   0.55656
C          C       0.56584   0.79357   0.35192   0.55515
C          C       0.45951   0.85707   0.30369   0.04768
C          C       0.30919   0.85618   0.32403  -0.20876
C          C       0.26544   0.92728   0.24860  -0.00778
C          C       0.12118   0.95833   0.22749   0.56285
C          C       0.78453   0.70373   0.64681   0.54449
C          C       0.79529   0.72776   0.75948   0.03364
C          C       0.79648   0.82706   0.81233  -0.20613
C          C       0.79998   0.79730   0.91878   0.01304
C          C       0.79113   0.85985   0.01528   0.56774
C          C       0.97410   0.13895   0.70545   0.55538
C          C       0.08470   0.11789   0.78382   0.02491
C          C       0.23732   0.11498   0.77417  -0.21492
C          C       0.28444   0.09735   0.87618   0.04406
C          C       0.43610   0.09439   0.91852   0.55736
C          C       0.56580   0.29525   0.64869   0.55363
C          C       0.45873   0.35727   0.69767   0.05052
C          C       0.30785   0.35505   0.67836  -0.21175
C          C       0.26411   0.42608   0.75308  -0.00614
C          C       0.12026   0.45804   0.77288   0.56269
C          C       0.78859   0.20239   0.35494   0.54349
C          C       0.80020   0.22663   0.24193   0.03810
C          C       0.80328   0.32656   0.18877  -0.20640
C          C       0.80557   0.29757   0.08238   0.01256
C          C       0.79557   0.36070   0.98570   0.56792
N          N       0.03627   0.60362   0.11457  -0.20729
N          N       0.15802   0.59116   0.05995  -0.06086
N          N       0.50500   0.92544   0.22218  -0.16680
N          N       0.38753   0.96722   0.18937  -0.04899
N          N       0.79818   0.64518   0.83092  -0.17923
N          N       0.80231   0.68739   0.92743  -0.19290
N          N       0.03955   0.10184   0.88509  -0.20511
N          N       0.16183   0.09055   0.93956  -0.06151
N          N       0.50426   0.42592   0.77827  -0.16542
N          N       0.38645   0.46695   0.81126  -0.04820
N          N       0.80078   0.14435   0.17067  -0.18152
N          N       0.80571   0.18743   0.07401  -0.19258
O          O       0.01472   0.69934   0.37603  -0.53949
O          O       0.83582   0.60231   0.27940  -0.53957
O          O       0.53398   0.59911   0.15228  -0.53677
O          O       0.45156   0.58652   0.98359  -0.56273
O          O       0.51849   0.70922   0.40715  -0.51060
O          O       0.70404   0.82570   0.33326  -0.55180
O          O       0.00815   0.91453   0.29138  -0.45676
O          O       0.09607   0.02245   0.15784  -0.46278
O          O       0.79329   0.78344   0.58200  -0.52535
O          O       0.76389   0.60217   0.61687  -0.58698
O          O       0.76332   0.95766   0.01147  -0.56996
O          O       0.80722   0.81401   0.10513  -0.57031
O          O       0.01406   0.19597   0.62349  -0.53686
O          O       0.83655   0.10062   0.72394  -0.54137
O          O       0.54014   0.10640   0.84985  -0.53979
O          O       0.45192   0.08442   0.01656  -0.56033
O          O       0.51882   0.21163   0.59314  -0.50897
O          O       0.70395   0.32797   0.66679  -0.55127
O          O       0.00764   0.41330   0.70944  -0.45624
O          O       0.09575   0.52349   0.84088  -0.46256
O          O       0.80044   0.28277   0.41850  -0.52719
O          O       0.76376   0.10105   0.38626  -0.58564
O          O       0.76351   0.45731   0.98907  -0.57018
O          O       0.81429   0.31625   0.89606  -0.57034

