data_crystal

_audit_creation_method 'AiiDA-DDEC plugin'

_cell_length_a        11.05023
_cell_length_b        11.05023
_cell_length_c        11.16016

_cell_angle_alpha     90.00000
_cell_angle_beta     90.00000
_cell_angle_gamma     90.00000

_symmetry_space_group_name_Hall 'P 1'
_symmetry_space_group_name_H-M  'P 1'

loop_
_symmetry_equiv_pos_as_xyz
 'x,y,z'

loop_
_atom_site_label
_atom_site_type_symbol
_atom_site_fract_x
_atom_site_fract_y
_atom_site_fract_z
_atom_site_charge
Li         Li      0.91479   0.59007   0.83695   0.77544
Li         Li      0.08521   0.40993   0.83695   0.77544
Li         Li      0.59007   0.08521   0.16305   0.77543
Li         Li      0.40993   0.91479   0.16305   0.77542
Li         Li      0.08527   0.59028   0.66393   0.77519
Li         Li      0.91473   0.40972   0.66393   0.77518
Li         Li      0.40972   0.08527   0.33608   0.77522
Li         Li      0.59028   0.91473   0.33608   0.77523
H          H       0.20797   0.52259   0.04106   0.12827
H          H       0.12686   0.82374   0.80752   0.12848
H          H       0.32863   0.66395   0.16599   0.08180
H          H       0.25069   0.95348   0.94167   0.07792
H          H       0.79203   0.47741   0.04106   0.12827
H          H       0.87314   0.17626   0.80752   0.12848
H          H       0.67137   0.33605   0.16599   0.08179
H          H       0.74931   0.04652   0.94167   0.07792
H          H       0.52259   0.79203   0.95894   0.12821
H          H       0.82374   0.87314   0.19249   0.12854
H          H       0.66395   0.67137   0.83401   0.08168
H          H       0.95348   0.74931   0.05833   0.07793
H          H       0.47741   0.20797   0.95894   0.12822
H          H       0.17626   0.12686   0.19249   0.12853
H          H       0.33605   0.32863   0.83401   0.08172
H          H       0.04652   0.25069   0.05833   0.07792
H          H       0.79228   0.52244   0.45971   0.12720
H          H       0.87291   0.82407   0.69279   0.12832
H          H       0.67200   0.66342   0.33433   0.08188
H          H       0.74944   0.95351   0.55813   0.07797
H          H       0.20772   0.47756   0.45971   0.12720
H          H       0.12709   0.17593   0.69279   0.12830
H          H       0.32800   0.33658   0.33433   0.08189
H          H       0.25056   0.04649   0.55813   0.07798
H          H       0.47756   0.79228   0.54029   0.12724
H          H       0.17593   0.87291   0.30722   0.12820
H          H       0.33658   0.67200   0.66568   0.08198
H          H       0.04649   0.74944   0.44187   0.07801
H          H       0.52244   0.20772   0.54029   0.12724
H          H       0.82407   0.12709   0.30722   0.12821
H          H       0.66342   0.32800   0.66568   0.08199
H          H       0.95351   0.25056   0.44187   0.07801
C          C       0.21567   0.61760   0.01628  -0.29020
C          C       0.17058   0.78529   0.88623  -0.29759
C          C       0.28283   0.69683   0.08571   0.09843
C          C       0.23971   0.85739   0.96133   0.10404
C          C       0.15748   0.66016   0.91119   0.40787
C          C       0.78433   0.38240   0.01628  -0.29016
C          C       0.82942   0.21471   0.88623  -0.29759
C          C       0.71717   0.30317   0.08571   0.09846
C          C       0.76029   0.14261   0.96133   0.10404
C          C       0.84252   0.33984   0.91119   0.40786
C          C       0.61760   0.78433   0.98373  -0.29008
C          C       0.78529   0.82942   0.11377  -0.29751
C          C       0.69683   0.71717   0.91430   0.09842
C          C       0.85739   0.76029   0.03867   0.10406
C          C       0.66016   0.84252   0.08881   0.40775
C          C       0.38240   0.21567   0.98373  -0.29009
C          C       0.21471   0.17058   0.11377  -0.29749
C          C       0.30317   0.28283   0.91430   0.09839
C          C       0.14261   0.23971   0.03867   0.10407
C          C       0.33984   0.15748   0.08881   0.40775
C          C       0.78456   0.61748   0.48435  -0.28869
C          C       0.82935   0.78542   0.61410  -0.29632
C          C       0.71756   0.69656   0.41461   0.09744
C          C       0.76042   0.85738   0.53871   0.10227
C          C       0.84223   0.66013   0.58972   0.40873
C          C       0.21544   0.38252   0.48435  -0.28868
C          C       0.17065   0.21458   0.61410  -0.29631
C          C       0.28244   0.30344   0.41461   0.09745
C          C       0.23958   0.14262   0.53871   0.10222
C          C       0.15777   0.33987   0.58972   0.40873
C          C       0.38252   0.78456   0.51565  -0.28869
C          C       0.21458   0.82935   0.38590  -0.29618
C          C       0.30344   0.71756   0.58540   0.09742
C          C       0.14262   0.76042   0.46130   0.10199
C          C       0.33987   0.84223   0.41028   0.40864
C          C       0.61748   0.21544   0.51565  -0.28873
C          C       0.78542   0.17065   0.38590  -0.29618
C          C       0.69656   0.28244   0.58540   0.09742
C          C       0.85738   0.23958   0.46130   0.10197
C          C       0.66013   0.15777   0.41028   0.40867
N          N       0.29689   0.81628   0.06092  -0.42298
N          N       0.70311   0.18372   0.06092  -0.42305
N          N       0.81628   0.70311   0.93909  -0.42308
N          N       0.18372   0.29689   0.93909  -0.42309
N          N       0.70342   0.81608   0.43906  -0.42156
N          N       0.29658   0.18392   0.43906  -0.42153
N          N       0.18392   0.70342   0.56095  -0.42129
N          N       0.81608   0.29658   0.56095  -0.42126
O          O       0.09448   0.58774   0.84123  -0.79121
O          O       0.90552   0.41226   0.84123  -0.79121
O          O       0.58774   0.90552   0.15877  -0.79110
O          O       0.41226   0.09449   0.15877  -0.79111
O          O       0.90441   0.58772   0.66052  -0.79273
O          O       0.09559   0.41228   0.66052  -0.79273
O          O       0.41228   0.90441   0.33949  -0.79276
O          O       0.58772   0.09559   0.33949  -0.79278

