data_crystal

_audit_creation_method 'AiiDA-DDEC plugin'

_cell_length_a         6.76992
_cell_length_b        10.10004
_cell_length_c        12.16987

_cell_angle_alpha     109.02929
_cell_angle_beta     90.00000
_cell_angle_gamma     90.00000

_symmetry_space_group_name_Hall 'P 1'
_symmetry_space_group_name_H-M  'P 1'

loop_
_symmetry_equiv_pos_as_xyz
 'x,y,z'

loop_
_atom_site_label
_atom_site_type_symbol
_atom_site_fract_x
_atom_site_fract_y
_atom_site_fract_z
_atom_site_charge
Cu         Cu      0.25000   0.85604   0.23907   0.95733
Cu         Cu      0.75000   0.14398   0.76093   0.95719
Cu         Cu      0.00000   0.00001   0.50000   0.82279
Cu         Cu      0.50000   0.00001   0.50000   0.82275
H          H       0.25000   0.41775   0.28181   0.13840
H          H       0.25000   0.04330   0.98405   0.13506
H          H       0.25000   0.45059   0.93796   0.13247
H          H       0.25000   0.08400   0.38402   0.34378
H          H       0.75000   0.58225   0.71820   0.13833
H          H       0.75000   0.95671   0.01595   0.13523
H          H       0.75000   0.54942   0.06205   0.13251
H          H       0.75000   0.91603   0.61597   0.34369
C          C       0.25000   0.60444   0.15916   0.53856
C          C       0.25000   0.44913   0.11380  -0.02374
C          C       0.25000   0.36809   0.18790  -0.08431
C          C       0.25000   0.22173   0.14043  -0.03394
C          C       0.25000   0.15706   0.01937  -0.09688
C          C       0.25000   0.23844   0.94599   0.02008
C          C       0.25000   0.38448   0.99297  -0.09678
C          C       0.25000   0.13264   0.21764   0.57324
C          C       0.25000   0.16977   0.81904   0.30064
C          C       0.75000   0.39558   0.84085   0.53860
C          C       0.75000   0.55088   0.88621  -0.02389
C          C       0.75000   0.63192   0.81210  -0.08434
C          C       0.75000   0.77828   0.85957  -0.03408
C          C       0.75000   0.84295   0.98063  -0.09680
C          C       0.75000   0.76157   0.05401   0.02032
C          C       0.75000   0.61553   0.00704  -0.09706
C          C       0.75000   0.86737   0.78236   0.57315
C          C       0.75000   0.83024   0.18096   0.30062
N          N       0.08637   0.13317   0.75242  -0.22544
N          N       0.15174   0.07474   0.64469  -0.05334
N          N       0.58637   0.86684   0.24758  -0.22556
N          N       0.65174   0.92528   0.35531  -0.05330
N          N       0.91363   0.86684   0.24758  -0.22540
N          N       0.84826   0.92528   0.35531  -0.05323
N          N       0.41363   0.13317   0.75242  -0.22546
N          N       0.34826   0.07474   0.64469  -0.05333
O          O       0.25000   0.67434   0.08891  -0.53346
O          O       0.25000   0.67098   0.26978  -0.55723
O          O       0.25000   0.19093   0.32730  -0.51254
O          O       0.25000  -0.00011   0.16418  -0.57083
O          O       0.25000   0.99385   0.41134  -0.89510
O          O       0.75000   0.32567   0.91110  -0.53336
O          O       0.75000   0.32903   0.73023  -0.55726
O          O       0.75000   0.80909   0.67270  -0.51268
O          O       0.75000   0.00012   0.83582  -0.57063
O          O       0.75000   0.00617   0.58866  -0.89480

