data_crystal

_audit_creation_method 'AiiDA-DDEC plugin'

_cell_length_a         4.14658
_cell_length_b        12.84853
_cell_length_c        14.54668

_cell_angle_alpha     65.23244
_cell_angle_beta     104.28684
_cell_angle_gamma     87.32951

_symmetry_space_group_name_Hall 'P 1'
_symmetry_space_group_name_H-M  'P 1'

loop_
_symmetry_equiv_pos_as_xyz
 'x,y,z'

loop_
_atom_site_label
_atom_site_type_symbol
_atom_site_fract_x
_atom_site_fract_y
_atom_site_fract_z
_atom_site_charge
Pr         Pr      0.23252   0.66092   0.68408   1.83758
Pr         Pr      0.78538   0.34412   0.30981   1.83905
H          H       0.80172   0.92999   0.65077   0.13072
H          H       0.80543   0.42947   0.90641   0.13067
H          H       0.35112   0.65396   0.45180   0.12656
H          H       0.21974   0.07598   0.34408   0.13302
H          H       0.20610   0.57724   0.08682   0.13064
H          H       0.65489   0.35356   0.54062   0.12681
C          C       0.23757   0.92896   0.49127   0.08053
C          C       0.90198   0.96191   0.58324   0.11293
C          C       0.22870   0.58584   0.93663   0.09187
C          C       0.66698   0.46189   0.94638   0.10615
C          C       0.88795   0.48231   0.58029   0.10039
C          C       0.19453   0.58700   0.47270   0.08383
C          C       0.51160   0.85301   0.48627   0.51770
C          C       0.90371   0.66969   0.87399   0.51938
C          C       0.72546   0.46304   0.66574   0.52164
C          C       0.78173   0.07642   0.50305   0.08413
C          C       0.11837   0.04357   0.41133   0.11066
C          C       0.78290   0.42074   0.05680   0.09242
C          C       0.34481   0.54472   0.04700   0.10578
C          C       0.11869   0.52513   0.41237   0.09836
C          C       0.81143   0.42057   0.51979   0.08364
C          C       0.50587   0.15225   0.50734   0.51883
C          C       0.10626   0.33603   0.12006   0.51800
C          C       0.28257   0.54423   0.32733   0.52286
N          N       0.12516   0.88866   0.57712  -0.30810
N          N       0.39235   0.54331   0.88739  -0.31193
N          N       0.07494   0.56672   0.55504  -0.29973
N          N       0.89429   0.11667   0.41727  -0.30982
N          N       0.61890   0.46323   0.10603  -0.31199
N          N       0.93177   0.44070   0.43753  -0.30014
O          O       0.60860   0.75044   0.56945  -0.68871
O          O       0.81476   0.69642   0.77225  -0.68074
O          O       0.77619   0.53536   0.70848  -0.67959
O          O       0.53287   0.39117   0.68268  -0.46084
O          O       0.63951   0.89082   0.41308  -0.46573
O          O       0.73396   0.69903   0.92054  -0.46375
O          O       0.40636   0.25399   0.42331  -0.68925
O          O       0.19049   0.30743   0.22215  -0.67892
O          O       0.23599   0.47082   0.28575  -0.68051
O          O       0.47166   0.61715   0.30967  -0.46170
O          O       0.37836   0.11471   0.58065  -0.46948
O          O       0.27967   0.30709   0.07418  -0.46322

