data_crystal

_audit_creation_method 'AiiDA-DDEC plugin'

_cell_length_a         8.20866
_cell_length_b        14.57309
_cell_length_c        15.51777

_cell_angle_alpha     104.18757
_cell_angle_beta     89.91289
_cell_angle_gamma     89.97124

_symmetry_space_group_name_Hall 'P 1'
_symmetry_space_group_name_H-M  'P 1'

loop_
_symmetry_equiv_pos_as_xyz
 'x,y,z'

loop_
_atom_site_label
_atom_site_type_symbol
_atom_site_fract_x
_atom_site_fract_y
_atom_site_fract_z
_atom_site_charge
U          U       0.91911   0.81777   0.77920   2.40853
U          U       0.42418   0.68547   0.74188   2.44007
U          U       0.07530   0.18194   0.23543   2.41736
U          U       0.57542   0.31941   0.27488   2.40062
P          P       0.97172   0.04275   0.71867   1.27654
P          P       0.01542   0.57619   0.70972   1.31468
P          P       0.47459   0.45263   0.78312   1.30033
P          P       0.51890   0.93025   0.78543   1.33411
P          P       0.02780   0.95119   0.28136   1.30718
P          P       0.98866   0.42602   0.28670   1.33737
P          P       0.52865   0.54762   0.21989   1.28530
P          P       0.48851   0.07519   0.21183   1.32837
H          H       0.20563   0.12055   0.72369   0.43271
H          H       0.72930   0.55084   0.65446   0.35688
H          H       0.81825   0.90169   0.57226   0.13823
H          H       0.26777   0.50069   0.57267   0.12596
H          H       0.71115   0.38037   0.78000   0.42927
H          H       0.22963   0.95172   0.84278   0.36865
H          H       0.31557   0.59345   0.92740   0.12298
H          H       0.77299   0.00226   0.92694   0.11287
H          H       0.78998   0.87808   0.27810   0.43621
H          H       0.27546   0.45334   0.34424   0.35921
H          H       0.18465   0.09465   0.42707   0.12735
H          H       0.72951   0.49872   0.42582   0.11454
H          H       0.29148   0.62367   0.22388   0.43114
H          H       0.77307   0.05093   0.15512   0.36148
H          H       0.68288   0.40408   0.07425   0.13426
H          H       0.23294  -0.00054   0.07122   0.11936
C          C       0.99533   0.01600   0.59617  -0.23561
C          C       0.10773   0.07119   0.55211   0.42114
C          C       0.90006   0.94726   0.54540  -0.12349
C          C       0.00869   0.52964   0.59084  -0.28020
C          C       0.85753   0.52628   0.54778   0.32078
C          C       0.15017   0.50141   0.54081  -0.15565
C          C       0.49126   0.48097   0.90385  -0.23867
C          C       0.60594   0.42819   0.94814   0.41812
C          C       0.39925   0.55067   0.95532  -0.12187
C          C       0.51252   0.97064   0.90459  -0.28098
C          C       0.36104   0.97333   0.94851   0.31426
C          C       0.65243  -0.00147   0.95520  -0.18053
C          C       0.00636   0.98224   0.40278  -0.23792
C          C       0.89414   0.92818   0.44714   0.41478
C          C       0.10136   0.05079   0.45378  -0.12292
C          C       0.99005   0.46993   0.40586  -0.27851
C          C       0.14150   0.47311   0.44886   0.31477
C          C       0.84867   0.49801   0.45584  -0.16754
C          C       0.50509   0.51717   0.09801  -0.24116
C          C       0.39147   0.57125   0.05407   0.42315
C          C       0.59949   0.44850   0.04697  -0.11602
C          C       0.49182   0.02987   0.09177  -0.27589
C          C       0.64265   0.02681   0.04771   0.32295
C          C       0.35196   0.00174   0.04096  -0.16383
O          O       0.00014   0.94217   0.74456  -0.83652
O          O       0.80772   0.08790   0.74195  -0.64814
O          O       0.12340   0.10193   0.76323  -0.61832
O          O       0.20851   0.12804   0.59554  -0.34211
O          O       0.90652   0.67272   0.72220  -0.88447
O          O       0.94335   0.51154   0.76086  -0.66053
O          O       0.19668   0.60786   0.72932  -0.87712
O          O       0.71243   0.54999   0.59213  -0.49697
O          O       0.50425   0.55426   0.76174  -0.84518
O          O       0.31375   0.41025   0.75755  -0.64848
O          O       0.62793   0.39425   0.73858  -0.61035
O          O       0.70969   0.37234   0.90648  -0.33779
O          O       0.40761   0.83525   0.77383  -0.87987
O          O       0.44880   0.00041   0.74181  -0.64857
O          O       0.69116   0.88778   0.75894  -0.88190
O          O       0.21529   0.94829   0.90436  -0.51955
O          O      -0.00229   0.05117   0.25522  -0.84150
O          O       0.18822   0.90874   0.25811  -0.65051
O          O       0.87249   0.89359   0.23889  -0.62580
O          O       0.79141   0.87143   0.40367  -0.34722
O          O       0.09533   0.33022   0.27565  -0.89298
O          O       0.05850   0.49186   0.23794  -0.65357
O          O       0.81149   0.38504   0.26349  -0.89116
O          O       0.28805   0.44846   0.40545  -0.51339
O          O       0.50121   0.44813   0.24924  -0.83854
O          O       0.69240   0.59083   0.24120  -0.64516
O          O       0.37888   0.61031   0.26471  -0.61432
O          O       0.28919   0.62720   0.09674  -0.34062
O          O       0.60186   0.16945   0.22323  -0.88616
O          O       0.55798   0.00746   0.25732  -0.65158
O          O       0.30797   0.11281   0.23457  -0.88992
O          O       0.78776   0.05033   0.09225  -0.50849
F          F       0.14716   0.77612   0.71795  -0.60734
F          F       0.64945   0.73197   0.82196  -0.66567
F          F       0.86223   0.22448   0.32022  -0.63170
F          F       0.36446   0.27084   0.19191  -0.61926

