data_crystal

_audit_creation_method 'AiiDA-DDEC plugin'

_cell_length_a         4.52317
_cell_length_b        11.69963
_cell_length_c        13.97220

_cell_angle_alpha     91.66015
_cell_angle_beta     99.89360
_cell_angle_gamma     93.50912

_symmetry_space_group_name_Hall 'P 1'
_symmetry_space_group_name_H-M  'P 1'

loop_
_symmetry_equiv_pos_as_xyz
 'x,y,z'

loop_
_atom_site_label
_atom_site_type_symbol
_atom_site_fract_x
_atom_site_fract_y
_atom_site_fract_z
_atom_site_charge
Li         Li      0.67283   0.01546   0.92555   0.78965
Li         Li      0.29831   0.49870   0.56155   0.77429
Li         Li      0.32717   0.98454   0.07445   0.78966
Li         Li      0.70169   0.50130   0.43845   0.77429
H          H       0.09192   0.16429   0.63934   0.13058
H          H       0.95419   0.02652   0.76248   0.09233
H          H       0.33595   0.23858   0.84308   0.09450
H          H       0.42558   0.37853   0.71611   0.11041
H          H       0.64022   0.72864   0.89436   0.13570
H          H       0.67364   0.57500   0.76531   0.08243
H          H       0.88974   0.67024   0.59750   0.10169
H          H       0.80844   0.81405   0.72507   0.12317
H          H       0.90808   0.83571   0.36066   0.13054
H          H       0.04581   0.97348   0.23752   0.09229
H          H       0.66405   0.76142   0.15692   0.09450
H          H       0.57442   0.62147   0.28389   0.11042
H          H       0.35978   0.27136   0.10564   0.13568
H          H       0.32636   0.42500   0.23469   0.08239
H          H       0.11026   0.32976   0.40250   0.10169
H          H       0.19156   0.18595   0.27493   0.12318
C          C       0.86050   0.36716   0.59911   0.58761
C          C       0.77926   0.28615   0.67282  -0.01451
C          C       0.93286   0.18492   0.68606  -0.13763
C          C       0.84269   0.10571   0.75008   0.08997
C          C       0.48395   0.22077   0.79169   0.08701
C          C       0.55503   0.30344   0.72670  -0.13298
C          C       0.18030   0.86144   0.90148   0.59400
C          C       0.20853   0.77299   0.82442  -0.02504
C          C       0.46110   0.71055   0.83223  -0.13746
C          C       0.49442   0.63355   0.75666   0.08575
C          C       0.04743   0.68248   0.66538   0.10781
C          C      -0.00678   0.75852   0.73857  -0.13966
C          C       0.13950   0.63284   0.40089   0.58765
C          C       0.22074   0.71384   0.32718  -0.01453
C          C       0.06714   0.81508   0.31394  -0.13747
C          C       0.15731   0.89429   0.24992   0.08988
C          C       0.51605   0.77922   0.20831   0.08695
C          C       0.44497   0.69655   0.27330  -0.13292
C          C       0.81970   0.13856   0.09852   0.59403
C          C       0.79147   0.22701   0.17558  -0.02500
C          C       0.53890   0.28945   0.16777  -0.13748
C          C       0.50558   0.36645   0.24334   0.08578
C          C       0.95257   0.31752   0.33462   0.10783
C          C       0.00678   0.24148   0.26144  -0.13961
N          N       0.62894   0.12232   0.80394  -0.33761
N          N       0.28643   0.61836   0.67364  -0.35349
N          N       0.37106   0.87768   0.19606  -0.33763
N          N       0.71357   0.38164   0.32636  -0.35355
O          O       0.08415   0.34356   0.56030  -0.61401
O          O       0.70794   0.45524   0.57839  -0.73235
O          O       0.94552   0.91663   0.88880  -0.66010
O          O       0.40236   0.87801   0.97222  -0.70204
O          O       0.91585   0.65644   0.43970  -0.61402
O          O       0.29206   0.54476   0.42161  -0.73235
O          O       0.05448   0.08337   0.11120  -0.66010
O          O       0.59764   0.12199   0.02779  -0.70210

