data_crystal

_audit_creation_method 'AiiDA-DDEC plugin'

_cell_length_a        10.35299
_cell_length_b        12.36673
_cell_length_c        14.11907

_cell_angle_alpha     89.91159
_cell_angle_beta     89.93641
_cell_angle_gamma     91.56918

_symmetry_space_group_name_Hall 'P 1'
_symmetry_space_group_name_H-M  'P 1'

loop_
_symmetry_equiv_pos_as_xyz
 'x,y,z'

loop_
_atom_site_label
_atom_site_type_symbol
_atom_site_fract_x
_atom_site_fract_y
_atom_site_fract_z
_atom_site_charge
Cd         Cd      0.84764   0.07401   0.58561   1.09192
Cd         Cd      0.65239   0.42749   0.08618   1.09180
Cd         Cd      0.15293   0.92638   0.41423   1.09205
Cd         Cd      0.34786   0.57299   0.91329   1.09230
H          H       0.56061   0.32759   0.70181   0.14154
H          H       0.36736   0.09524   0.51940   0.13486
H          H       0.14485   0.31476   0.68799   0.14112
H          H       0.93893   0.16987   0.20037   0.14162
H          H       0.13208   0.40582   0.02039   0.13515
H          H       0.35486   0.18527   0.18783   0.14069
H          H       0.43952   0.67196   0.29864   0.14192
H          H       0.63275   0.90460   0.48076   0.13464
H          H       0.85533   0.68509   0.31228   0.14083
H          H       0.06162   0.83050   0.79957   0.14148
H          H       0.86751   0.59478   0.97920   0.13409
H          H       0.64563   0.81547   0.81119   0.14075
C          C       0.35248   0.33234   0.70005  -0.03473
C          C       0.47197   0.29339   0.67138  -0.07306
C          C       0.47700   0.20887   0.60567  -0.03554
C          C       0.36255   0.16249   0.56878  -0.06347
C          C       0.24300   0.20115   0.59871  -0.04141
C          C       0.23787   0.28624   0.66398  -0.07350
C          C       0.34856   0.41857   0.77271   0.53634
C          C       0.60447   0.16442   0.58156   0.53948
C          C       0.11988   0.14768   0.56744   0.58676
C          C       0.14718   0.16638   0.19945  -0.03593
C          C       0.02759   0.20500   0.17052  -0.07282
C          C       0.02257   0.29061   0.10565  -0.03619
C          C       0.13702   0.33797   0.06931  -0.06430
C          C       0.25666   0.29930   0.09898  -0.04425
C          C       0.26172   0.21350   0.16381  -0.07255
C          C       0.15106   0.07970   0.27209   0.53758
C          C       0.89530   0.33542   0.08165   0.54100
C          C       0.37985   0.35346   0.06804   0.58736
C          C       0.64768   0.66741   0.30035  -0.03498
C          C       0.52812   0.70626   0.32906  -0.07334
C          C       0.52306   0.79086   0.39467  -0.03633
C          C       0.63753   0.83732   0.43145  -0.06228
C          C       0.75714   0.79875   0.40153  -0.04304
C          C       0.76230   0.71357   0.33636  -0.07314
C          C       0.65151   0.58148   0.22740   0.53721
C          C       0.39557   0.83532   0.41860   0.53995
C          C       0.88010   0.85272   0.43256   0.58896
C          C       0.85331   0.83395   0.80013  -0.03427
C          C       0.97282   0.79533   0.82922  -0.07437
C          C       0.97749   0.70974   0.89413  -0.03432
C          C       0.86279   0.66261   0.93027  -0.06442
C          C       0.74325   0.70140   0.90049  -0.04255
C          C       0.73851   0.78701   0.83550  -0.07394
C          C       0.84944   0.92068   0.72762   0.53657
C          C       0.10464   0.66471   0.91829   0.53947
C          C       0.62008   0.64784   0.93205   0.58711
O          O       0.24124   0.44469   0.81010  -0.46170
O          O       0.45329   0.46617   0.79998  -0.47335
O          O       0.70631   0.20442   0.62301  -0.45822
O          O       0.61683   0.08596   0.52462  -0.44077
O          O       0.11739   0.05804   0.52424  -0.54495
O          O       0.01365   0.19318   0.58970  -0.47178
O          O       0.25837   0.05342   0.30957  -0.46308
O          O       0.04641   0.03202   0.29971  -0.47076
O          O       0.79321   0.29671   0.12383  -0.45899
O          O       0.88326   0.41314   0.02384  -0.43994
O          O       0.38218   0.44354   0.02512  -0.54488
O          O       0.48620   0.30791   0.08999  -0.47211
O          O       0.75874   0.55538   0.18981  -0.46201
O          O       0.54672   0.53402   0.20006  -0.47159
O          O       0.29384   0.79531   0.37703  -0.45840
O          O       0.38324   0.91384   0.47549  -0.44140
O          O       0.88231   0.94224   0.47588  -0.54480
O          O       0.98657   0.80789   0.40999  -0.47294
O          O       0.74208   0.94685   0.69021  -0.46240
O          O       0.95404   0.96848   0.70012  -0.47134
O          O       0.20681   0.70326   0.87606  -0.45914
O          O       0.11662   0.58706   0.97616  -0.43834
O          O       0.61791   0.55813   0.97547  -0.54519
O          O       0.51363   0.69308   0.91002  -0.47177

