data_crystal

_audit_creation_method 'AiiDA-DDEC plugin'

_cell_length_a         4.88341
_cell_length_b        19.82518
_cell_length_c        19.81111

_cell_angle_alpha     80.53626
_cell_angle_beta     85.21040
_cell_angle_gamma     85.21882

_symmetry_space_group_name_Hall 'P 1'
_symmetry_space_group_name_H-M  'P 1'

loop_
_symmetry_equiv_pos_as_xyz
 'x,y,z'

loop_
_atom_site_label
_atom_site_type_symbol
_atom_site_fract_x
_atom_site_fract_y
_atom_site_fract_z
_atom_site_charge
Zn         Zn      0.50237   0.00162  -0.00094   0.92354
Zn         Zn      0.00638   0.93471   0.06597   0.95549
Zn         Zn     -0.00600   0.06525   0.93390   0.95118
H          H       0.17284   0.71289   0.08503   0.11725
H          H       0.39232   0.59682   0.06947   0.10253
H          H       0.07915   0.68962   0.95190   0.10993
H          H       0.86168   0.80548   0.96798   0.11278
H          H       0.93817   0.44657   0.89931   0.11826
H          H       0.64506   0.54446   0.85137   0.13068
H          H       0.39924   0.54755   0.92248   0.10539
H          H       0.59226   0.61956   0.89093   0.13436
H          H       0.82682   0.91475   0.28720   0.11687
H          H       0.60803   0.93091   0.40324   0.10273
H          H       0.92100   0.04802   0.31042   0.11225
H          H       0.13639   0.03095   0.19442   0.11327
H          H       0.06098   0.10067   0.55357   0.11828
H          H       0.35409   0.14862   0.45561   0.13073
H          H       0.60039   0.07765   0.45244   0.10577
H          H       0.40683   0.10909   0.38043   0.13451
H          H       0.82742   0.28730   0.91497   0.11758
H          H       0.60787   0.40335   0.93054   0.10207
H          H       0.92110   0.31059   0.04805   0.11256
H          H       0.13808   0.19471   0.03205   0.11361
H          H       0.06198   0.55357   0.10069   0.11852
H          H       0.35465   0.45572   0.14864   0.13078
H          H       0.60073   0.45262   0.07758   0.10538
H          H       0.40765   0.38059   0.10913   0.13449
H          H       0.17215   0.08539   0.71247   0.11774
H          H       0.39170   0.06915   0.59653   0.10221
H          H       0.07788   0.95193   0.68967   0.11299
H          H       0.86204   0.96922   0.80560   0.11488
H          H       0.93858   0.89939   0.44638   0.11503
H          H       0.64604   0.85139   0.54428   0.13085
H          H       0.39952   0.92231   0.54747   0.10515
H          H       0.59299   0.89084   0.61951   0.13445
H          H       0.16598   0.06415   0.06010   0.41346
H          H       0.83167   0.93552   0.94025   0.41337
C          C       0.36824   0.83562   0.03005   0.58062
C          C       0.49830   0.76642   0.02320  -0.05677
C          C       0.36361   0.70739   0.05359  -0.08161
C          C       0.49464   0.64289   0.04789  -0.14761
C          C       0.75003   0.63561   0.01260   0.08061
C          C       0.88674   0.69447   0.98295  -0.14053
C          C       0.75787   0.75941   0.98876  -0.07929
C          C       0.87197   0.56542   0.00563   0.01537
C          C       0.82180   0.53426   0.94907   0.10947
C          C       0.96405   0.47055   0.94380  -0.20419
C          C       0.60722   0.56332   0.90063  -0.40408
C          C       0.62739   0.96773   0.16435   0.58332
C          C       0.49975   0.97582   0.23359  -0.06082
C          C       0.63597   0.94616   0.29262  -0.08014
C          C       0.50561   0.95225   0.35713  -0.14791
C          C       0.25032   0.98750   0.36440   0.08081
C          C       0.11315   0.01694   0.30553  -0.14351
C          C       0.24069   0.01054   0.24054  -0.07658
C          C       0.12835   0.99443   0.43463   0.01507
C          C       0.17794   0.05095   0.46584   0.10957
C          C       0.03537   0.05620   0.52957  -0.20376
C          C       0.39224   0.09942   0.43671  -0.40446
C          C       0.63192   0.16468   0.96973   0.58015
C          C       0.50167   0.23379   0.97668  -0.05613
C          C       0.63646   0.29280   0.94634  -0.08296
C          C       0.50543   0.35729   0.95204  -0.14642
C          C       0.25011   0.36455   0.98735   0.08141
C          C       0.11343   0.30569   0.01699  -0.14284
C          C       0.24213   0.24073   0.01119  -0.07862
C          C       0.12812   0.43472   0.99437   0.01412
C          C       0.17828   0.46587   0.05093   0.10950
C          C       0.03609   0.52959   0.05619  -0.20359
C          C       0.39274   0.43682   0.09940  -0.40375
C          C       0.37277   0.03318   0.83534   0.58467
C          C       0.49938   0.02449   0.76622  -0.05894
C          C       0.36301   0.05397   0.70715  -0.08353
C          C       0.49372   0.04779   0.64270  -0.14710
C          C       0.74905   0.01252   0.63555   0.08131
C          C       0.88581   0.98306   0.69448  -0.14303
C          C       0.75816   0.98962   0.75941  -0.07738
C          C       0.87138   0.00560   0.56534   0.01406
C          C       0.82187   0.94906   0.53414   0.10946
C          C       0.96434   0.94384   0.47041  -0.20096
C          C       0.60765   0.90056   0.56322  -0.40317
O          O       0.48515   0.88858  -0.00001  -0.58556
O          O       0.13997   0.83829   0.06734  -0.52128
O          O       0.50160   0.99455   0.11166  -0.58457
O          O       0.86102   0.93277   0.16163  -0.51787
O          O       0.51410   0.11180  -0.00022  -0.58185
O          O       0.86045   0.16179   0.93268  -0.51925
O          O       0.50053   0.00734   0.88807  -0.58525
O          O       0.13789   0.06745   0.83816  -0.51564
O          O       0.88829   0.96655   0.96888  -0.83408
O          O       0.11243   0.03334   0.03080  -0.83542

