data_crystal

_audit_creation_method 'AiiDA-DDEC plugin'

_cell_length_a        10.27622
_cell_length_b        10.51123
_cell_length_c        11.47994

_cell_angle_alpha     82.86838
_cell_angle_beta     74.25010
_cell_angle_gamma     70.43229

_symmetry_space_group_name_Hall 'P 1'
_symmetry_space_group_name_H-M  'P 1'

loop_
_symmetry_equiv_pos_as_xyz
 'x,y,z'

loop_
_atom_site_label
_atom_site_type_symbol
_atom_site_fract_x
_atom_site_fract_y
_atom_site_fract_z
_atom_site_charge
Dy         Dy      0.58580   0.59285   0.63674   2.09969
Dy         Dy      0.41858   0.40632   0.36124   2.10575
Cu         Cu      0.00004   0.49958   0.49975   0.97971
H          H       0.37428   0.98067   0.46863   0.14172
H          H       0.98822   0.17756   0.35183   0.13836
H          H       0.17426   0.74358   0.33890   0.13622
H          H       0.66388   0.48793   0.94777   0.15075
H          H       0.91328   0.32601   0.21095   0.14361
H          H       0.12317   0.33626   0.82938   0.14916
H          H       0.62578   0.01812   0.53124   0.14180
H          H       0.01174   0.82266   0.64814   0.13839
H          H       0.82512   0.25639   0.66087   0.13621
H          H       0.33622   0.51229   0.05173   0.14914
H          H       0.08707   0.67349   0.78856   0.14369
H          H       0.87730   0.66381   0.17005   0.14743
C          C       0.28393   0.84831   0.40871  -0.03754
C          C       0.29032   0.97456   0.43077  -0.06211
C          C       0.18442   0.09233   0.40850  -0.02447
C          C       0.07327   0.08586   0.36345  -0.11216
C          C       0.07369   0.96087   0.33585   0.05436
C          C       0.17697   0.84121   0.35797  -0.09840
C          C       0.38780   0.71985   0.44280   0.68603
C          C       0.18045   0.22992   0.43342   0.64930
C          C       0.89428   0.41977   0.87574  -0.03488
C          C       0.76820   0.44297   0.96807  -0.05964
C          C       0.77780   0.40617   0.08802  -0.01844
C          C       0.90968   0.35032   0.11691  -0.10758
C          C       0.03237   0.32513   0.02291   0.04951
C          C       0.02704   0.35779   0.90264  -0.10692
C          C       0.89162   0.45689   0.74628   0.63488
C          C       0.64904   0.41341   0.18731   0.57118
C          C       0.71576   0.15157   0.59066  -0.03894
C          C       0.70961   0.02510   0.56877  -0.06121
C          C       0.81539   0.90743   0.59150  -0.02597
C          C       0.92651   0.91418   0.63646  -0.11130
C          C       0.92591   0.03925   0.66390   0.05492
C          C       0.82258   0.15881   0.64143  -0.09779
C          C       0.61095   0.27948   0.55703   0.68651
C          C       0.81953   0.76968   0.56687   0.65001
C          C       0.10590   0.57991   0.12394  -0.03495
C          C       0.23186   0.55721   0.03171  -0.06126
C          C       0.22202   0.59379   0.91195  -0.01545
C          C       0.09048   0.64962   0.88272  -0.10874
C          C       0.96792   0.67500   0.97673   0.04914
C          C       0.97333   0.64214   0.09689  -0.11066
C          C       0.10832   0.54170   0.25338   0.63572
C          C       0.35114   0.58579   0.81290   0.57056
N          N       0.95683   0.95626   0.28659   0.51810
N          N       0.17234   0.26352   0.05094   0.52105
N          N       0.04277   0.04377   0.71326   0.51816
N          N       0.82801   0.73655   0.94896   0.52152
O          O       0.37305   0.60774   0.42497  -0.72839
O          O       0.48395   0.72600   0.48916  -0.65166
O          O       0.29545   0.25449   0.42565  -0.69325
O          O       0.05479   0.31371   0.45933  -0.55425
O          O       0.87073   0.06519   0.26294  -0.33327
O          O       0.95062   0.84314   0.27329  -0.32113
O          O       0.01008   0.44637   0.66962  -0.52310
O          O       0.77170   0.49445   0.71858  -0.73593
O          O       0.52641   0.44746   0.16306  -0.63447
O          O       0.66061   0.37899   0.29600  -0.63055
O          O       0.17608   0.25065   0.15929  -0.34405
O          O       0.27843   0.22964   0.96472  -0.31732
O          O       0.62473   0.39184   0.57575  -0.73238
O          O       0.51638   0.27092   0.51019  -0.64316
O          O       0.70460   0.74477   0.57431  -0.69910
O          O       0.94479   0.68571   0.54094  -0.55028
O          O       0.12888   0.93491   0.73685  -0.33159
O          O       0.04893   0.15691   0.72666  -0.32191
O          O       0.98944   0.55358   0.33004  -0.52887
O          O       0.22796   0.50174   0.28134  -0.73641
O          O       0.47225   0.55777   0.83823  -0.63563
O          O       0.33983   0.61438   0.70361  -0.63238
O          O       0.82412   0.74943   0.84041  -0.34876
O          O       0.72202   0.77042   0.03494  -0.31632

