data_crystal

_audit_creation_method 'AiiDA-DDEC plugin'

_cell_length_a         7.37858
_cell_length_b        12.56706
_cell_length_c        13.44514

_cell_angle_alpha     90.51201
_cell_angle_beta     88.01018
_cell_angle_gamma     89.38030

_symmetry_space_group_name_Hall 'P 1'
_symmetry_space_group_name_H-M  'P 1'

loop_
_symmetry_equiv_pos_as_xyz
 'x,y,z'

loop_
_atom_site_label
_atom_site_type_symbol
_atom_site_fract_x
_atom_site_fract_y
_atom_site_fract_z
_atom_site_charge
Zn         Zn      0.49443   0.25071   0.08720   0.76476
Zn         Zn      0.51502   0.74892   0.90787   0.76273
Ni         Ni      0.00369   0.00103   0.99678   0.21579
Ni         Ni      0.98440   0.51963   0.02977   0.35512
H          H       0.52587   0.40785   0.91573   0.10450
H          H       0.56971   0.41026   0.72975   0.11755
H          H       0.44260   0.45613   0.42866   0.12533
H          H       0.38695   0.42407   0.24781   0.10192
H          H       0.48291   0.92385   0.07080   0.09949
H          H       0.39054   0.93434   0.25162   0.12592
H          H       0.45275   0.88488   0.54372   0.14127
H          H       0.48553   0.89585   0.72836   0.10010
H          H       0.56985   0.59806   0.08583   0.09521
H          H       0.51196   0.59845   0.27027   0.11863
H          H       0.48122   0.54067   0.57133   0.12454
H          H       0.51263   0.56993   0.75529   0.09942
H          H       0.55186   0.07827   0.91982   0.10076
H          H       0.61366   0.06801   0.73580   0.12644
H          H       0.56389   0.11780   0.45017   0.14230
H          H       0.50728   0.10366   0.26840   0.10024
C          C       0.82417   0.08209   0.06133   0.03620
C          C       0.18415   0.07688   0.05473   0.05350
C          C       0.54172   0.33440   0.87266   0.10410
C          C       0.56594   0.33548   0.76941  -0.14879
C          C       0.45726   0.37675   0.39621  -0.16962
C          C       0.42696   0.35961   0.29625   0.08928
C          C       0.17376   0.61085   0.98521  -0.03300
C          C       0.82263   0.56197   0.92860  -0.00788
C          C       0.48486   0.85346   0.11718   0.09905
C          C       0.43700   0.85950   0.21799  -0.14272
C          C       0.46674   0.81308   0.58723  -0.17114
C          C       0.48500   0.81966   0.68919   0.09250
C          C       0.18996   0.92419   0.93517   0.05099
C          C       0.83158   0.91947   0.93610   0.03800
C          C       0.53737   0.67162   0.12615   0.09393
C          C       0.50156   0.67181   0.22859  -0.15103
C          C       0.48080   0.62051   0.60323  -0.16949
C          C       0.49854   0.63596   0.70447   0.08930
C          C       0.79402   0.44054   0.09358  -0.04749
C          C       0.15366   0.40350   0.02813   0.00340
C          C       0.55855   0.15002   0.87524   0.09659
C          C       0.59003   0.14449   0.77270  -0.14552
C          C       0.52402   0.18750   0.40882  -0.16768
C          C       0.49284   0.17935   0.30807   0.09245
C          C       0.59351   0.23897   0.71805   0.02045
C          C       0.63892   0.23349   0.60871   0.45239
C          C       0.51406   0.28997   0.45577   0.25501
C          C       0.44369   0.76701   0.27519   0.01524
C          C       0.37773   0.77325   0.38144   0.44766
C          C       0.46028   0.71048   0.54091   0.25641
N          N       0.30849   0.12142   0.08694  -0.35795
N          N       0.70960   0.13600   0.09882  -0.35655
N          N       0.70523   0.61506   0.89744  -0.35127
N          N       0.29747   0.64657   0.93984  -0.32986
N          N       0.72299   0.86523   0.89970  -0.35518
N          N       0.31651   0.87685   0.90212  -0.36328
N          N       0.27355   0.35262   0.05900  -0.33782
N          N       0.67421   0.38061   0.10654  -0.33567
N          N       0.53735   0.24337   0.92465  -0.19924
N          N       0.55583   0.31070   0.55166  -0.30085
N          N       0.44967   0.26350   0.25160  -0.17928
N          N       0.52862   0.76051   0.07126  -0.20294
N          N       0.43653   0.69240   0.44247  -0.30302
N          N       0.49937   0.73322   0.74734  -0.17397
O          O       0.75407   0.16899   0.57509  -0.40375
O          O       0.26437   0.84161   0.40982  -0.40347

