data_crystal

_audit_creation_method 'AiiDA-DDEC plugin'

_cell_length_a         6.77499
_cell_length_b        15.10892
_cell_length_c        15.10738

_cell_angle_alpha     117.88456
_cell_angle_beta     98.58259
_cell_angle_gamma     98.57262

_symmetry_space_group_name_Hall 'P 1'
_symmetry_space_group_name_H-M  'P 1'

loop_
_symmetry_equiv_pos_as_xyz
 'x,y,z'

loop_
_atom_site_label
_atom_site_type_symbol
_atom_site_fract_x
_atom_site_fract_y
_atom_site_fract_z
_atom_site_charge
Ni         Ni      0.97403   0.59214   0.26869   0.97069
Ni         Ni      0.70365   0.73115   0.32363   0.97167
Ni         Ni      0.37987   0.67632   0.40815   0.97030
Ni         Ni      0.02596   0.40786   0.73131   0.97075
Ni         Ni      0.29635   0.26886   0.67637   0.97165
Ni         Ni      0.62013   0.32368   0.59185   0.97024
H          H       0.87273   0.55899   0.02050   0.14473
H          H       0.85168   0.97863   0.53806   0.14428
H          H       0.31382   0.46137   0.44087   0.14442
H          H       0.12727   0.44101   0.97950   0.14473
H          H       0.14832   0.02138   0.46194   0.14428
H          H       0.68618   0.53863   0.55914   0.14459
C          C       0.68528   0.43143   0.82614   0.62927
C          C       0.58176   0.46370   0.91227  -0.14982
C          C       0.63510   0.57109   0.10112   0.30188
C          C       0.70880   0.53312   0.01164  -0.18544
C          C       0.85921   0.17357   0.60390   0.63175
C          C       0.67006   0.08736   0.55068  -0.15030
C          C       0.53311   0.89901   0.47037   0.30243
C          C       0.69706   0.98805   0.52129  -0.18478
C          C       0.25460   0.39582   0.56967   0.62755
C          C       0.11910   0.44930   0.53677  -0.14870
C          C       0.06321   0.52954   0.42876   0.30102
C          C       0.17599   0.47860   0.46694  -0.18486
C          C       0.31472   0.56858   0.17386   0.62916
C          C       0.41824   0.53630   0.08773  -0.14976
C          C       0.36490   0.42892   0.89888   0.30178
C          C       0.29120   0.46688   0.98836  -0.18538
C          C       0.14079   0.82643   0.39610   0.63180
C          C       0.32994   0.91264   0.44932  -0.15042
C          C       0.46689   0.10100   0.52963   0.30240
C          C       0.30294   0.01195   0.47871  -0.18469
C          C       0.74540   0.60418   0.43033   0.62740
C          C       0.88090   0.55070   0.46323  -0.14858
C          C       0.93679   0.47046   0.57124   0.30106
C          C       0.82401   0.52140   0.53306  -0.18502
O          O       0.87781   0.46628   0.84357  -0.51263
O          O       0.57403   0.36606   0.73313  -0.59485
O          O       0.77461   0.63840   0.19226  -0.60479
O          O       0.03486   0.15632   0.62013  -0.51364
O          O       0.83918   0.26656   0.63271  -0.59625
O          O       0.58053   0.80774   0.44648  -0.60419
O          O       0.41448   0.37989   0.53644  -0.51244
O          O       0.20454   0.36633   0.63312  -0.59410
O          O       0.13448   0.55328   0.36139  -0.60336
O          O       0.12219   0.53373   0.15643  -0.51263
O          O       0.42597   0.63394   0.26687  -0.59479
O          O       0.22538   0.36160   0.80774  -0.60477
O          O       0.96513   0.84368   0.37988  -0.51361
O          O       0.16082   0.73345   0.36729  -0.59625
O          O       0.41947   0.19226   0.55353  -0.60419
O          O       0.58552   0.62011   0.46356  -0.51231
O          O       0.79546   0.63367   0.36688  -0.59405
O          O       0.86552   0.44672   0.63862  -0.60325

