data_crystal

_audit_creation_method 'AiiDA-DDEC plugin'

_cell_length_a         8.24114
_cell_length_b        10.56881
_cell_length_c        11.01327

_cell_angle_alpha     89.99841
_cell_angle_beta     86.72764
_cell_angle_gamma     89.98072

_symmetry_space_group_name_Hall 'P 1'
_symmetry_space_group_name_H-M  'P 1'

loop_
_symmetry_equiv_pos_as_xyz
 'x,y,z'

loop_
_atom_site_label
_atom_site_type_symbol
_atom_site_fract_x
_atom_site_fract_y
_atom_site_fract_z
_atom_site_charge
Co         Co      0.00000   0.50001  -0.00002   0.88427
Co         Co      0.49999   0.00001   0.49997   0.87037
H          H       0.69988   0.38564   0.90079   0.09819
H          H       0.44173   0.45550   0.81224   0.11461
H          H       0.63651   0.83442   0.80080   0.12792
H          H       0.88387   0.74875   0.89307   0.09001
H          H       0.24863   0.82298   0.62782   0.04086
H          H       0.10457   0.70199   0.75352   0.03996
H          H       0.79935   0.88577   0.59927   0.09941
H          H       0.05730   0.95554   0.68806   0.11549
H          H       0.86375   0.33450   0.69938   0.12991
H          H       0.61608   0.24941   0.60693   0.09096
H          H       0.25055   0.32330   0.87150   0.03981
H          H       0.39601   0.19868   0.74353   0.04093
H          H       0.30014   0.61438   0.09920   0.09832
H          H       0.55826   0.54454   0.18775   0.11467
H          H       0.36350   0.16561   0.19917   0.12796
H          H       0.11615   0.25129   0.10691   0.09007
H          H       0.75141   0.17705   0.37211   0.04101
H          H       0.89546   0.29808   0.24645   0.04025
H          H       0.20057   0.11430   0.40072   0.09916
H          H       0.94261   0.04447   0.31194   0.11523
H          H       0.13621   0.66555   0.30063   0.13007
H          H       0.38391   0.75060   0.39306   0.09078
H          H       0.74950   0.67668   0.12847   0.03990
H          H       0.60400   0.80135   0.25647   0.04071
C          C       0.67933   0.48406   0.87746   0.08822
C          C       0.53663   0.52406   0.82808  -0.18061
C          C       0.64485   0.73437   0.82194  -0.18411
C          C       0.78315   0.68735   0.87248   0.06487
C          C       0.51549   0.65234   0.79914   0.16582
C          C       0.36503   0.70005   0.74999  -0.19088
C          C       0.36795   0.79186   0.65736   0.20558
C          C       0.20951   0.65965   0.79668   0.22699
C          C       0.81954   0.98412   0.62288   0.08838
C          C       0.96221   0.02388   0.67240  -0.18118
C          C       0.85467   0.23443   0.67836  -0.18555
C          C       0.71637   0.18764   0.62778   0.06693
C          C       0.98343   0.15206   0.70136   0.17098
C          C       0.13435   0.19927   0.75000  -0.19498
C          C       0.13127   0.29156   0.84234   0.20724
C          C       0.28894   0.15733   0.70251   0.22819
C          C       0.32062   0.51599   0.12256   0.08766
C          C       0.46341   0.47596   0.17190  -0.18016
C          C       0.35521   0.26564   0.17803  -0.18355
C          C       0.21683   0.31268   0.12753   0.06414
C          C       0.48451   0.34770   0.20087   0.16539
C          C       0.63501   0.29999   0.25000  -0.19083
C          C       0.63208   0.20821   0.34263   0.20563
C          C       0.79050   0.34049   0.20335   0.22657
C          C       0.18038   0.01591   0.37713   0.08904
C          C       0.03778   0.97616   0.32760  -0.18131
C          C       0.14535   0.76563   0.32165  -0.18610
C          C       0.28357   0.81239   0.37223   0.06789
C          C       0.01652   0.84796   0.29867   0.17116
C          C       0.86566   0.80073   0.24997  -0.19469
C          C       0.86877   0.70841   0.15765   0.20687
C          C       0.71108   0.84264   0.29751   0.22834
N          N       0.80156   0.56400   0.90130  -0.26521
N          N       0.69753   0.06432   0.59905  -0.26198
N          N       0.19847   0.43601   0.09867  -0.26487
N          N       0.30251   0.93575   0.40085  -0.26274
O          O       0.49627   0.83841   0.60511  -0.44022
O          O       0.18506   0.58200   0.88320  -0.44455
O          O       0.00313   0.33793   0.89460  -0.44294
O          O       0.31085   0.07872   0.61647  -0.44641
O          O       0.50377   0.16169   0.39495  -0.44023
O          O       0.81490   0.41822   0.11692  -0.44451
O          O      -0.00308   0.66205   0.10539  -0.44268
O          O       0.68916   0.92121   0.38358  -0.44642

