data_crystal

_audit_creation_method 'AiiDA-DDEC plugin'

_cell_length_a         7.73325
_cell_length_b         8.68733
_cell_length_c        12.23037

_cell_angle_alpha     110.81187
_cell_angle_beta     108.15872
_cell_angle_gamma     90.56588

_symmetry_space_group_name_Hall 'P 1'
_symmetry_space_group_name_H-M  'P 1'

loop_
_symmetry_equiv_pos_as_xyz
 'x,y,z'

loop_
_atom_site_label
_atom_site_type_symbol
_atom_site_fract_x
_atom_site_fract_y
_atom_site_fract_z
_atom_site_charge
Cu         Cu      0.26102   0.96372  -0.00141   0.83134
Cu         Cu      0.73994   0.97053  -0.00013   0.83506
H          H      -0.00199   0.42191   0.44653   0.12393
H          H       0.11093   0.61585   0.67056   0.12464
H          H       0.00048   0.97437   0.55321   0.12300
H          H       0.88765   0.94816   0.33078   0.12418
H          H       0.55407   0.97276   0.54917   0.12332
H          H       0.44015   0.94531   0.32635   0.12274
H          H       0.44288   0.42247   0.44786   0.12396
H          H       0.55682   0.61681   0.67171   0.12352
C          C       0.90313   0.46537   0.49671  -0.12436
C          C       0.96564   0.57199   0.62086  -0.08312
C          C       0.09519   0.96805   0.50274  -0.12387
C          C       0.03263   0.95258   0.37916  -0.08145
C          C       0.40864   0.96692   0.50044  -0.12119
C          C       0.34559   0.95099   0.37681  -0.08313
C          C       0.58855   0.46563   0.49739  -0.12298
C          C       0.65148   0.57248   0.62152  -0.08232
C          C       0.71388   0.41133   0.43418   0.03334
C          C       0.84044   0.62587   0.68403  -0.04432
C          C       0.90792   0.74535   0.81570   0.61926
C          C       0.64956   0.29483   0.30500   0.22978
C          C       0.28395   0.97517   0.56434   0.03281
C          C       0.15707   0.94314   0.31507  -0.04507
C          C       0.09080   0.93099   0.18337   0.62238
C          C       0.34860   0.98672   0.69308   0.23249
N          N       0.47628   0.12416   0.13030  -0.10032
N          N       0.47209   0.22735   0.23899  -0.21534
N          N       0.52318   0.99413   0.86765  -0.09818
N          N       0.52662   0.99031   0.75917  -0.21718
N          N       0.34845   0.99235   0.86768  -0.09800
N          N       0.23677   0.98793   0.75941  -0.21800
N          N       0.65090   0.12837   0.13003  -0.09971
N          N       0.76171   0.23448   0.23844  -0.21254
O          O       0.78549   0.79410   0.86548  -0.56511
O          O       0.21226   0.91861   0.13112  -0.56260
O          O       0.91912   0.93437   0.13631  -0.56705
O          O       0.08168   0.78688   0.86483  -0.55989

