data_crystal

_audit_creation_method 'AiiDA-DDEC plugin'

_cell_length_a        10.16322
_cell_length_b        10.98998
_cell_length_c        14.65987

_cell_angle_alpha     90.00000
_cell_angle_beta     106.67785
_cell_angle_gamma     90.00000

_symmetry_space_group_name_Hall 'P 1'
_symmetry_space_group_name_H-M  'P 1'

loop_
_symmetry_equiv_pos_as_xyz
 'x,y,z'

loop_
_atom_site_label
_atom_site_type_symbol
_atom_site_fract_x
_atom_site_fract_y
_atom_site_fract_z
_atom_site_charge
Cu         Cu      0.03736   0.24254   0.00896   0.91114
Cu         Cu      0.96264   0.24254   0.49104   0.91109
Cu         Cu      0.96264   0.75746   0.99105   0.91110
Cu         Cu      0.03736   0.75746   0.50895   0.91109
H          H       0.12848   0.48756   0.04352   0.11268
H          H       0.31926   0.61499   0.03203   0.13289
H          H       0.52434   0.28326   0.98485   0.13808
H          H       0.32139   0.17045   0.99416   0.11769
H          H       0.87152   0.48756   0.45648   0.11271
H          H       0.68074   0.61499   0.46797   0.13290
H          H       0.47566   0.28326   0.51514   0.13808
H          H       0.67861   0.17045   0.50584   0.11771
H          H       0.87153   0.51245   0.95648   0.11268
H          H       0.68074   0.38502   0.96797   0.13285
H          H       0.47566   0.71675   0.01515   0.13812
H          H       0.67862   0.82956   0.00584   0.11786
H          H       0.12847   0.51245   0.54352   0.11262
H          H       0.31926   0.38502   0.53203   0.13278
H          H       0.52434   0.71675   0.48485   0.13815
H          H       0.32139   0.82956   0.49416   0.11785
C          C       0.21752   0.44625   0.02967   0.10786
C          C       0.32732   0.51726   0.02340  -0.13463
C          C       0.44178   0.46264   0.00514   0.11084
C          C       0.43931   0.33475   0.99668  -0.14418
C          C       0.32503   0.26891   0.00227   0.11378
C          C       0.92921   0.34782   0.15016   0.56443
C          C       0.96126   0.22800   0.20175  -0.05662
C          C       0.81563   0.12033   0.05607   0.56143
C          C       0.91381   0.11823   0.15503  -0.09008
C          C       0.95606   0.00793   0.20302  -0.00186
C          C       0.91190   0.89025   0.14984   0.56416
C          C       0.78248   0.44625   0.47032   0.10791
C          C       0.67268   0.51726   0.47660  -0.13465
C          C       0.55822   0.46264   0.49485   0.11087
C          C       0.56069   0.33475   0.50332  -0.14422
C          C       0.67497   0.26891   0.49773   0.11374
C          C       0.07080   0.34782   0.34984   0.56449
C          C       0.03874   0.22800   0.29825  -0.05671
C          C       0.18437   0.12033   0.44393   0.56156
C          C       0.08619   0.11823   0.34497  -0.09010
C          C       0.04394   0.00793   0.29698  -0.00190
C          C       0.08810   0.89025   0.35016   0.56416
C          C       0.78248   0.55375   0.97032   0.10792
C          C       0.67268   0.48275   0.97660  -0.13480
C          C       0.55822   0.53736   0.99485   0.11082
C          C       0.56069   0.66526   0.00332  -0.14418
C          C       0.67497   0.73110  -0.00228   0.11363
C          C       0.07079   0.65218   0.84984   0.56459
C          C       0.03874   0.77200   0.79825  -0.05679
C          C       0.18437   0.87967   0.94393   0.56139
C          C       0.08619   0.88177   0.84497  -0.08994
C          C       0.04394   0.99207   0.79698  -0.00191
C          C       0.08810   0.10975   0.85016   0.56417
C          C       0.21752   0.55375   0.52967   0.10780
C          C       0.32732   0.48275   0.52339  -0.13467
C          C       0.44178   0.53736   0.50514   0.11080
C          C       0.43931   0.66526   0.49668  -0.14407
C          C       0.32503   0.73110   0.50227   0.11365
C          C       0.92921   0.65218   0.65016   0.56464
C          C       0.96126   0.77200   0.70175  -0.05669
C          C       0.81563   0.87967   0.55607   0.56158
C          C       0.91381   0.88177   0.65503  -0.09013
C          C       0.95606   0.99207   0.70302  -0.00187
C          C       0.91190   0.10975   0.64984   0.56392
N          N       0.21451   0.32454   0.01795  -0.25768
N          N       0.78549   0.32454   0.48205  -0.25765
N          N       0.78549   0.67546   0.98205  -0.25749
N          N       0.21451   0.67546   0.51795  -0.25760
O          O       0.85288   0.17750   0.98993  -0.49798
O          O       0.70062   0.07284   0.04144  -0.41281
O          O       0.98559   0.37041   0.08287  -0.53860
O          O       0.85291   0.41867   0.17670  -0.37872
O          O       0.94035   0.89077   0.06908  -0.52668
O          O       0.85529   0.81122   0.18511  -0.39505
O          O       0.14712   0.17750   0.51006  -0.49812
O          O       0.29939   0.07284   0.45856  -0.41282
O          O       0.01441   0.37041   0.41713  -0.53864
O          O       0.14709   0.41867   0.32330  -0.37868
O          O       0.05965   0.89077   0.43092  -0.52671
O          O       0.14471   0.81122   0.31489  -0.39499
O          O       0.14712   0.82250   0.01006  -0.49818
O          O       0.29938   0.92716   0.95856  -0.41266
O          O       0.01441   0.62959   0.91713  -0.53890
O          O       0.14708   0.58134   0.82330  -0.37871
O          O       0.05965   0.10923   0.93092  -0.52691
O          O       0.14471   0.18878   0.81489  -0.39481
O          O       0.85288   0.82250   0.48994  -0.49804
O          O       0.70062   0.92716   0.54144  -0.41275
O          O       0.98559   0.62959   0.58287  -0.53865
O          O       0.85292   0.58133   0.67669  -0.37893
O          O       0.94035   0.10923   0.56908  -0.52651
O          O       0.85529   0.18878   0.68511  -0.39494

