data_crystal

_audit_creation_method 'AiiDA-DDEC plugin'

_cell_length_a         8.55503
_cell_length_b         9.18462
_cell_length_c        10.52227

_cell_angle_alpha     91.47367
_cell_angle_beta     114.12232
_cell_angle_gamma     89.95365

_symmetry_space_group_name_Hall 'P 1'
_symmetry_space_group_name_H-M  'P 1'

loop_
_symmetry_equiv_pos_as_xyz
 'x,y,z'

loop_
_atom_site_label
_atom_site_type_symbol
_atom_site_fract_x
_atom_site_fract_y
_atom_site_fract_z
_atom_site_charge
Mn         Mn      0.89393   0.24969   0.00001   1.17760
Mn         Mn      0.10607   0.75031  -0.00001   1.17759
P          P       0.17341   0.48773   0.20804   1.29474
P          P       0.96277   0.01153   0.79027   1.29647
P          P       0.82659   0.51227   0.79195   1.29476
P          P       0.03724   0.98847   0.20973   1.29639
H          H       0.01804   0.67053   0.21835   0.39731
H          H       0.20708   0.33535   0.60182   0.14413
H          H       0.14237   0.27196   0.42720   0.13155
H          H       0.07917   0.44640   0.46101   0.14137
H          H       0.51094   0.59322   0.28589   0.12100
H          H       0.79813   0.82741   0.77969   0.39829
H          H       0.60407   0.16509   0.39716   0.14409
H          H       0.71462   0.22808   0.57199   0.13098
H          H       0.61779   0.05390   0.53789   0.14226
H          H       0.22490   0.90635   0.71483   0.12081
H          H       0.98196   0.32947   0.78165   0.39734
H          H       0.79292   0.66465   0.39818   0.14422
H          H       0.85763   0.72804   0.57280   0.13152
H          H       0.92083   0.55360   0.53898   0.14138
H          H       0.48906   0.40678   0.71411   0.12090
H          H       0.20187   0.17259   0.22031   0.39831
H          H       0.39593   0.83491   0.60283   0.14404
H          H       0.28538   0.77193   0.42800   0.13096
H          H       0.38221   0.94610   0.46211   0.14228
H          H       0.77510   0.09365   0.28517   0.12085
C          C       0.18540   0.36856   0.49666  -0.43297
C          C       0.34489   0.43500   0.49494   0.18942
C          C       0.35494   0.48903   0.37373  -0.26655
C          C       0.50772   0.55209   0.38083  -0.12593
C          C       0.68809   0.13171   0.50224  -0.43298
C          C       0.84954   0.06520   0.50423   0.18773
C          C       0.98071   0.01094   0.62573  -0.26628
C          C       0.12687   0.94765   0.61962  -0.12560
C          C       0.81460   0.63144   0.50334  -0.43295
C          C       0.65511   0.56500   0.50506   0.18938
C          C       0.64507   0.51097   0.62627  -0.26655
C          C       0.49228   0.44791   0.61917  -0.12585
C          C       0.31191   0.86830   0.49776  -0.43288
C          C       0.15046   0.93480   0.49577   0.18764
C          C       0.01930   0.98906   0.37427  -0.26614
C          C       0.87313   0.05235   0.38038  -0.12572
O          O       0.11730   0.32909   0.16156  -0.76853
O          O       0.21930   0.57416   0.10535  -0.76565
O          O       0.01814   0.56246   0.23225  -0.64633
O          O       0.95248   0.16987   0.83735  -0.77045
O          O       0.11173   0.92551   0.89394  -0.76746
O          O       0.78311   0.93523   0.76282  -0.64906
O          O       0.88270   0.67091   0.83844  -0.76852
O          O       0.78070   0.42584   0.89465  -0.76576
O          O       0.98186   0.43754   0.76774  -0.64629
O          O       0.04752   0.83013   0.16265  -0.77042
O          O       0.88827   0.07449   0.10606  -0.76742
O          O       0.21690   0.06477   0.23718  -0.64903

