data_crystal

_audit_creation_method 'AiiDA-DDEC plugin'

_cell_length_a         4.66223
_cell_length_b        15.66016
_cell_length_c        16.03966

_cell_angle_alpha     90.03675
_cell_angle_beta     89.99047
_cell_angle_gamma     89.99866

_symmetry_space_group_name_Hall 'P 1'
_symmetry_space_group_name_H-M  'P 1'

loop_
_symmetry_equiv_pos_as_xyz
 'x,y,z'

loop_
_atom_site_label
_atom_site_type_symbol
_atom_site_fract_x
_atom_site_fract_y
_atom_site_fract_z
_atom_site_charge
Cu         Cu      0.25125   0.74984   0.60284   0.32205
Cu         Cu      0.25177   0.75049   0.89717   0.32200
Cu         Cu      0.74877   0.25017   0.39717   0.32216
Cu         Cu      0.74824   0.24951   0.10283   0.32193
H          H       0.74924   0.66657   0.67756   0.09022
H          H       0.40003   0.55729   0.63503   0.11639
H          H       0.86240   0.53741   0.40076   0.12005
H          H       0.20191   0.64245   0.45603   0.08699
H          H       0.75474   0.83268   0.67727   0.08994
H          H       0.10218   0.94269   0.63467   0.11667
H          H       0.63619   0.96270   0.40114   0.11861
H          H       0.29893   0.85695   0.45637   0.08468
H          H       0.75551   0.66772   0.82316   0.09034
H          H       0.10262   0.55783   0.86541   0.11680
H          H       0.63563   0.53693   0.09887   0.11977
H          H       0.29936   0.64314   0.04400   0.08365
H          H       0.74976   0.83359   0.82224   0.08965
H          H       0.40044   0.94306   0.86494   0.11571
H          H       0.86202   0.96234   0.09927   0.11917
H          H       0.20207   0.85754   0.04382   0.08369
H          H       0.25077   0.33343   0.32244   0.09012
H          H       0.59998   0.44271   0.36497   0.11650
H          H       0.13761   0.46259   0.59924   0.12019
H          H       0.79810   0.35756   0.54398   0.08692
H          H       0.24527   0.16732   0.32273   0.08981
H          H       0.89784   0.05731   0.36533   0.11649
H          H       0.36383   0.03730   0.59887   0.11871
H          H       0.70109   0.14306   0.54363   0.08487
H          H       0.24450   0.33228   0.17684   0.09034
H          H       0.89739   0.44217   0.13459   0.11695
H          H       0.36438   0.46307   0.90113   0.11971
H          H       0.70065   0.35687   0.95601   0.08372
H          H       0.25025   0.16641   0.17776   0.08990
H          H       0.59957   0.05695   0.13506   0.11607
H          H       0.13800   0.03767   0.90074   0.11892
H          H       0.79795   0.14247   0.95619   0.08357
C          C       0.76678   0.63597   0.61689   0.02834
C          C       0.56834   0.57517   0.59190  -0.17727
C          C       0.59776   0.53303   0.51312   0.06439
C          C       0.82630   0.56256   0.46298  -0.18714
C          C       0.01694   0.62303   0.49258   0.05403
C          C       0.73615   0.86354   0.61679   0.02760
C          C       0.93341   0.92462   0.59176  -0.17747
C          C       0.90243   0.96696   0.51317   0.06386
C          C       0.67317   0.93748   0.46325  -0.18473
C          C       0.48372   0.87669   0.49284   0.05305
C          C       0.73678   0.63687   0.88364   0.02874
C          C       0.93395   0.57568   0.90848  -0.17704
C          C       0.90261   0.53313   0.98693   0.06438
C          C       0.67312   0.56242   0.03688  -0.18715
C          C       0.48408   0.62343   0.00747   0.05814
C          C       0.76721   0.86424   0.88290   0.02642
C          C       0.56872   0.92499   0.90798  -0.17640
C          C       0.59792   0.96702   0.98684   0.06374
C          C       0.82626   0.93737   0.03697  -0.18599
C          C       0.01714   0.87702   0.00727   0.05593
C          C       0.23323   0.36403   0.38311   0.02803
C          C       0.43169   0.42483   0.40810  -0.17707
C          C       0.40225   0.46697   0.48688   0.06428
C          C       0.17372   0.43745   0.53703  -0.18684
C          C       0.98307   0.37697   0.50742   0.05382
C          C       0.26387   0.13647   0.38321   0.02765
C          C       0.06660   0.07538   0.40824  -0.17765
C          C       0.09759   0.03305   0.48684   0.06377
C          C       0.32684   0.06252   0.53676  -0.18460
C          C       0.51629   0.12332   0.50716   0.05309
C          C       0.26324   0.36314   0.11637   0.02874
C          C       0.06606   0.42433   0.09152  -0.17707
C          C       0.09740   0.46688   0.01307   0.06424
C          C       0.32688   0.43759   0.96312  -0.18706
C          C       0.51594   0.37657   0.99253   0.05782
C          C       0.23280   0.13576   0.11711   0.02647
C          C       0.43130   0.07501   0.09202  -0.17661
C          C       0.40209   0.03298   0.01316   0.06365
C          C       0.17376   0.06263   0.96303  -0.18578
C          C       0.98286   0.12299   0.99273   0.05586
N          N      -0.00574   0.65948   0.56973  -0.22720
N          N       0.50835   0.83984   0.56974  -0.22835
N          N       0.50916   0.66051   0.93072  -0.22861
N          N      -0.00524   0.84066   0.93005  -0.22787
N          N       0.00576   0.34052   0.43028  -0.22732
N          N       0.49166   0.16016   0.43026  -0.22812
N          N       0.49085   0.33950   0.06928  -0.22847
N          N       0.00526   0.15934   0.06995  -0.22786
Cl         Cl      0.24855   0.74656   0.75004  -0.50982
Cl         Cl      0.75146   0.25344   0.24996  -0.50981

