data_crystal

_audit_creation_method 'AiiDA-DDEC plugin'

_cell_length_a         9.04395
_cell_length_b         9.13525
_cell_length_c        19.82054

_cell_angle_alpha     95.64835
_cell_angle_beta     97.91584
_cell_angle_gamma     117.89669

_symmetry_space_group_name_Hall 'P 1'
_symmetry_space_group_name_H-M  'P 1'

loop_
_symmetry_equiv_pos_as_xyz
 'x,y,z'

loop_
_atom_site_label
_atom_site_type_symbol
_atom_site_fract_x
_atom_site_fract_y
_atom_site_fract_z
_atom_site_charge
Zn         Zn      0.31141   0.44362   0.77344   0.82578
Zn         Zn      0.44055   0.61514   0.93699   1.02633
Zn         Zn      0.57025   0.79184   0.09906   0.82532
H          H       0.37705   0.98894   0.84001   0.09787
H          H       0.48358   0.06733   0.77227   0.09780
H          H       0.77787   0.07428   0.77242   0.09230
H          H       0.85677   0.99601   0.83788   0.09379
H          H       0.85056   0.46401   0.89141   0.10414
H          H       0.77506   0.35578   0.80407   0.09955
H          H       0.03270   0.76801   0.98042   0.10426
H          H       0.10633   0.87598   0.06781   0.09887
H          H       0.50284   0.24639   0.03233   0.09796
H          H       0.39634   0.16718   0.09998   0.09818
H          H       0.10117   0.15523   0.09939   0.09131
H          H       0.01988   0.23225   0.03427   0.09365
H          H       0.00220   0.16614   0.68603   0.12439
H          H       0.87657   0.04214   0.56091   0.12653
H          H       0.32199   0.45511   0.51513   0.12291
H          H       0.42563   0.56548   0.64406   0.11962
H          H       0.10928   0.25840   0.41992   0.11012
H          H       0.79309   0.96427   0.45214   0.11275
H          H       0.58492   0.76156   0.35788   0.12381
H          H       0.46941   0.65902   0.22884   0.11921
H          H       0.87813   0.07147   0.18535   0.12437
H          H       0.01227   0.19021   0.31018   0.12778
H          H       0.61504   0.95293   0.89616   0.09192
H          H       0.89310   0.23158   0.92767   0.08786
H          H       0.60940   0.23044   0.92652   0.08914
H          H       0.98704  -0.00120   0.94407   0.08817
H          H       0.26286   0.27914   0.97582   0.09176
H          H       0.27280   0.00301   0.94576   0.08981
C          C       0.50596   0.33749   0.85747   0.62018
C          C       0.59987   0.23857   0.87128  -0.09943
C          C       0.50362   0.05976   0.82743  -0.18473
C          C       0.60609   0.96646   0.84163  -0.11245
C          C       0.51021   0.79089   0.79805   0.62170
C          C       0.78663   0.06505   0.82746  -0.18811
C          C       0.88245   0.24195   0.87258  -0.10637
C          C       0.06419   0.34631   0.86240   0.61958
C          C       0.78280   0.33831   0.85828  -0.17771
C          C       0.81665   0.88354   0.00951   0.62000
C          C      -0.00213   0.98832  -0.00087  -0.10552
C          C       0.09900   0.89359   0.01362  -0.17704
C          C       0.28219   0.99524   0.00103  -0.09869
C          C       0.37636   0.89659   0.01506   0.61843
C          C       0.37637   0.17427   0.04477  -0.18614
C          C       0.27189   0.26570   0.03036  -0.11025
C          C       0.36500   0.44092   0.07447   0.62189
C          C       0.09179   0.16484   0.04440  -0.18961
C          C       0.06805   0.22426   0.64591   0.08748
C          C      -0.00046   0.15708   0.57598  -0.17981
C          C       0.08905   0.23886   0.52622   0.14105
C          C       0.24713   0.38696   0.55124  -0.18604
C          C       0.30743   0.44825   0.62210   0.09494
C          C       0.02582   0.18039   0.45164  -0.12257
C          C       0.87567   0.04253   0.42025  -0.12505
C          C       0.80926   0.98545   0.34580   0.13891
C          C       0.65360   0.83442   0.32136  -0.18554
C          C       0.58706   0.77714   0.25059   0.09157
C          C       0.81788   0.00868   0.22580   0.09053
C          C       0.89159   0.07273   0.29560  -0.18013
N          N       0.21941   0.36803   0.66883  -0.20411
N          N       0.66778   0.86326   0.20343  -0.20542
O          O       0.45167   0.33401   0.79341  -0.56278
O          O       0.48951   0.41657   0.90943  -0.57205
O          O       0.50553   0.76320   0.73482  -0.55960
O          O       0.42679   0.66805   0.83113  -0.59087
O          O       0.09023   0.31727   0.80137  -0.57442
O          O       0.17407   0.45508   0.91348  -0.56238
O          O       0.70582   0.77590   0.95835  -0.56242
O          O       0.79183   0.91175   0.07081  -0.57415
O          O       0.38772   0.81248   0.96333  -0.56948
O          O       0.43473   0.90445   0.07927  -0.56107
O          O       0.45310   0.56493   0.04273  -0.59295
O          O       0.36307   0.46677   0.13706  -0.55662

