data_crystal

_audit_creation_method 'AiiDA-DDEC plugin'

_cell_length_a        10.67499
_cell_length_b         9.64438
_cell_length_c        18.39983

_cell_angle_alpha     90.05423
_cell_angle_beta     93.22769
_cell_angle_gamma     90.24401

_symmetry_space_group_name_Hall 'P 1'
_symmetry_space_group_name_H-M  'P 1'

loop_
_symmetry_equiv_pos_as_xyz
 'x,y,z'

loop_
_atom_site_label
_atom_site_type_symbol
_atom_site_fract_x
_atom_site_fract_y
_atom_site_fract_z
_atom_site_charge
Zn         Zn      0.87090   0.05049   0.03379   0.95773
Zn         Zn      0.00248   0.17624   0.88490   0.85648
Zn         Zn      0.63378   0.55202   0.46648   0.98879
Zn         Zn      0.49655   0.68083   0.61144   0.86065
Zn         Zn      0.12910   0.94951   0.96621   0.95776
Zn         Zn     -0.00248   0.82377   0.11510   0.85649
Zn         Zn      0.36622   0.44799   0.53352   0.98876
Zn         Zn      0.50345   0.31917   0.38856   0.86075
H          H       0.69523   0.29121   0.75429   0.13472
H          H       0.28652   0.27375   0.74851   0.14004
H          H       0.50414   0.11330   0.93569   0.14674
H          H       0.80595   0.79114   0.74663   0.13761
H          H       0.21489   0.77207   0.75045   0.14051
H          H       0.99504   0.61616   0.56281   0.14334
H          H       0.30477   0.70879   0.24571   0.13473
H          H       0.71348   0.72625   0.25149   0.14007
H          H       0.49586   0.88670   0.06431   0.14672
H          H       0.19405   0.20887   0.25337   0.13760
H          H       0.78511   0.22794   0.24955   0.14048
H          H       0.00497   0.38384   0.43720   0.14337
C          C       0.61304   0.20204   0.84861  -0.04583
C          C       0.60769   0.26680   0.77912  -0.07537
C          C       0.49159   0.29162   0.73978  -0.03161
C          C       0.38157   0.25331   0.77252  -0.08655
C          C       0.38694   0.19372   0.84275  -0.04948
C          C       0.50178   0.16363   0.88150  -0.07255
C          C       0.73691   0.17614   0.88913   0.58247
C          C       0.48016   0.36999   0.66804   0.55888
C          C       0.26365   0.15382   0.87155   0.56998
C          C       0.88567   0.70138   0.65062  -0.04669
C          C       0.89191   0.76576   0.71986  -0.07859
C          C       0.00872   0.78992   0.75844  -0.03243
C          C       0.11966   0.75114   0.72610  -0.08719
C          C       0.11434   0.69254   0.65599  -0.04956
C          C      -0.00204   0.66450   0.61725  -0.07411
C          C       0.76039   0.67273   0.61102   0.59981
C          C       0.02017   0.87142   0.82989   0.57130
C          C       0.23912   0.65480   0.62814   0.58124
C          C       0.38696   0.79797   0.15139  -0.04583
C          C       0.39231   0.73321   0.22088  -0.07549
C          C       0.50841   0.70839   0.26022  -0.03159
C          C       0.61843   0.74670   0.22748  -0.08656
C          C       0.61306   0.80629   0.15726  -0.04954
C          C       0.49822   0.83638   0.11850  -0.07247
C          C       0.26309   0.82387   0.11087   0.58247
C          C       0.51984   0.63001   0.33196   0.55904
C          C       0.73635   0.84618   0.12845   0.56990
C          C       0.11433   0.29862   0.34938  -0.04676
C          C       0.10809   0.23424   0.28014  -0.07848
C          C       0.99128   0.21009   0.24156  -0.03242
C          C       0.88034   0.24886   0.27390  -0.08737
C          C       0.88566   0.30747   0.34401  -0.04944
C          C       0.00204   0.33550   0.38276  -0.07401
C          C       0.23961   0.32727   0.38898   0.59968
C          C       0.97983   0.12859   0.17011   0.57137
C          C       0.76088   0.34520   0.37186   0.58113
I          I       0.03692   0.35577   0.00907   0.19982
I          I       0.46557   0.85770   0.48972   0.16876
I          I       0.96309   0.64424   0.99093   0.19965
I          I       0.53443   0.14231   0.51028   0.16874
O          O       0.83429   0.21639   0.85512  -0.51342
O          O       0.73162   0.12432   0.95488  -0.52949
O          O       0.57131   0.44832   0.65292  -0.52568
O          O       0.37487   0.35771   0.62948  -0.56322
O          O       0.26833   0.07287   0.92703  -0.48459
O          O       0.16119   0.20757   0.83904  -0.52544
O          O       0.03519   0.13268  -0.00086  -0.64985
O          O       0.66415   0.72125   0.64308  -0.52508
O          O       0.76178   0.61362   0.54865  -0.52787
O          O       0.93620   0.95711   0.84470  -0.53280
O          O       0.12027   0.85049   0.87210  -0.56279
O          O       0.23544   0.57201   0.57384  -0.48255
O          O       0.34094   0.71178   0.65798  -0.52048
O          O       0.46146   0.62478   0.50451  -0.66561
O          O       0.16571   0.78361   0.14488  -0.51349
O          O       0.26838   0.87569   0.04512  -0.52944
O          O       0.42870   0.55168   0.34708  -0.52596
O          O       0.62514   0.64230   0.37052  -0.56306
O          O       0.73167   0.92713   0.07297  -0.48451
O          O       0.83882   0.79243   0.16096  -0.52541
O          O       0.96481   0.86732   0.00086  -0.64984
O          O       0.33586   0.27875   0.35692  -0.52521
O          O       0.23823   0.38638   0.45135  -0.52768
O          O       0.06380   0.04289   0.15530  -0.53286
O          O       0.87973   0.14952   0.12790  -0.56281
O          O       0.76456   0.42800   0.42616  -0.48236
O          O       0.65906   0.28823   0.34202  -0.52065
O          O       0.53854   0.37522   0.49549  -0.66556

