data_crystal

_audit_creation_method 'AiiDA-DDEC plugin'

_cell_length_a         9.30321
_cell_length_b        11.18455
_cell_length_c         9.64421

_cell_angle_alpha     117.93132
_cell_angle_beta     102.19366
_cell_angle_gamma     102.71325

_symmetry_space_group_name_Hall 'P 1'
_symmetry_space_group_name_H-M  'P 1'

loop_
_symmetry_equiv_pos_as_xyz
 'x,y,z'

loop_
_atom_site_label
_atom_site_type_symbol
_atom_site_fract_x
_atom_site_fract_y
_atom_site_fract_z
_atom_site_charge
Cu         Cu      0.07297   0.11115   0.05059   0.21018
Cu         Cu      0.33109   0.92598   0.92308   0.22909
H          H       0.69924   0.64818   0.81899   0.12575
H          H       0.23144   0.59129   0.80676   0.12401
H          H       0.44130   0.30539   0.88909   0.11159
H          H       0.29342   0.37049   0.71330   0.11438
H          H       0.46582   0.36619   0.66657   0.11477
H          H       0.83636   0.40322   0.44298   0.07857
H          H       0.24360   0.30767   0.43404   0.06488
H          H       0.06379   0.94347   0.60227   0.09267
H          H       0.03025   0.16613   0.79040   0.11474
H          H       0.99093   0.20589   0.62158   0.13496
H          H       0.35741   0.43791   0.23736   0.13159
H          H       0.66408   0.21356   0.09244   0.12298
H          H       0.64895   0.63242   0.09529   0.11568
H          H       0.77400   0.48575   0.21263   0.12101
H          H       0.68244   0.59319   0.33219   0.10859
H          H       0.05661   0.64432   0.58573   0.08576
H          H       0.75421   0.86426   0.74060   0.09173
H          H      -0.00307   0.02952   0.33840   0.09568
H          H       0.02851   0.80319   0.15198   0.13022
H          H       0.06091   0.76460   0.32119   0.13521
C          C       0.59403   0.67175   0.83157   0.06259
C          C       0.35409   0.64420   0.82960   0.06965
C          C       0.49018   0.41497   0.91503  -0.13501
C          C       0.42284   0.42487   0.76685  -0.05955
C          C       0.92432   0.36245   0.40142   0.10886
C          C       0.13002   0.31633   0.39848   0.09251
C          C       0.03620   0.01144   0.55703  -0.03998
C          C       0.01849   0.13491   0.66193  -0.31530
C          C       0.40178   0.35067   0.18855   0.06364
C          C       0.55658   0.23320   0.10714   0.07768
C          C       0.59835   0.52190   0.06596  -0.13215
C          C       0.66005   0.50019   0.20672  -0.06998
C          C       0.00973   0.72482   0.65500   0.11378
C          C       0.85735   0.83563   0.73195   0.12095
C          C       0.02122   0.96072   0.38385  -0.03426
C          C       0.03709   0.83585   0.27972  -0.33419
N          N       0.57815   0.79683   0.87063  -0.20589
N          N       0.42496   0.77886   0.86967  -0.15158
N          N       0.45676   0.57297   0.80470   0.02663
N          N       0.90343   0.28620   0.23787  -0.27898
N          N       0.03898   0.25528   0.23593  -0.19032
N          N       0.06384   0.38503   0.50819  -0.40210
N          N       0.32184   0.21197   0.12544  -0.15427
N          N       0.42056   0.13700   0.07314  -0.14832
N          N       0.54968   0.36896   0.18108   0.03216
N          N       0.10209   0.85112   0.80061  -0.20642
N          N       0.00190   0.92373   0.85123  -0.17634
N          N       0.85578   0.70965   0.60690  -0.38787

