data_crystal

_audit_creation_method 'AiiDA-DDEC plugin'

_cell_length_a         8.18225
_cell_length_b         9.61263
_cell_length_c        16.28871

_cell_angle_alpha     90.00019
_cell_angle_beta     89.99866
_cell_angle_gamma     97.97324

_symmetry_space_group_name_Hall 'P 1'
_symmetry_space_group_name_H-M  'P 1'

loop_
_symmetry_equiv_pos_as_xyz
 'x,y,z'

loop_
_atom_site_label
_atom_site_type_symbol
_atom_site_fract_x
_atom_site_fract_y
_atom_site_fract_z
_atom_site_charge
Sm         Sm      0.94937   0.13677   0.33561   1.81882
Sm         Sm      0.55063   0.36323   0.83560   1.81890
Sm         Sm      0.05058   0.86319   0.66440   1.81900
Sm         Sm      0.44943   0.63683   0.16440   1.81903
H          H       0.97827   0.70487   0.38821   0.16097
H          H       0.60949   0.33279   0.25328   0.08199
H          H       0.52179   0.79510   0.88819   0.16109
H          H       0.89053   0.16720   0.75327   0.08201
H          H       0.02189   0.29500   0.61180   0.16106
H          H       0.39044   0.66716   0.74677   0.08173
H          H       0.47812   0.20500   0.11179   0.16101
H          H       0.10958   0.83285   0.24679   0.08183
C          C       0.91698   0.48222   0.36707   0.18029
C          C       0.73319   0.79879   0.28804   0.60985
C          C       0.89491   0.62275   0.35782  -0.16109
C          C       0.76577   0.65112   0.30780   0.15055
C          C       0.06274   0.44245   0.41573   0.54517
C          C       0.69210   0.41516   0.28399   0.28148
C          C       0.90944   0.00781   0.51252   0.50069
C          C       0.58305   0.01776   0.86706   0.18043
C          C       0.76686   0.70119   0.78804   0.60975
C          C       0.60514   0.87723   0.85781  -0.16079
C          C       0.73428   0.84887   0.80780   0.15067
C          C       0.43726   0.05751   0.91570   0.54466
C          C       0.80794   0.08483   0.78398   0.28152
C          C       0.59057   0.49220   0.01252   0.50071
C          C       0.08304   0.51768   0.63293   0.17993
C          C       0.26693   0.20115   0.71195   0.60967
C          C       0.10519   0.37717   0.64217  -0.16098
C          C       0.23434   0.34883   0.69219   0.15093
C          C       0.93727   0.55741   0.58424   0.54554
C          C       0.30789   0.58479   0.71603   0.28214
C          C       0.09057   0.99216   0.48751   0.50113
C          C       0.41698   0.98232   0.13293   0.17974
C          C       0.23308   0.29885   0.21195   0.60952
C          C       0.39483   0.12283   0.14217  -0.16078
C          C       0.26568   0.15117   0.19219   0.15073
C          C       0.56274   0.94259   0.08421   0.54602
C          C       0.19214   0.91522   0.21604   0.28206
C          C       0.40943   0.50784   0.98751   0.50069
N          N       0.81499   0.37788   0.33010  -0.35661
N          N       0.66304   0.54720   0.27123  -0.35160
N          N       0.68503   0.12210   0.83008  -0.35668
N          N       0.83701   0.95279   0.77122  -0.35205
N          N       0.18497   0.62203   0.66994  -0.35651
N          N       0.33704   0.45276   0.72877  -0.35234
N          N       0.31505   0.87797   0.16994  -0.35659
N          N       0.16299   0.04725   0.22878  -0.35192
O          O       0.06528   0.30861   0.42310  -0.63469
O          O       0.84789   0.89742   0.30409  -0.63520
O          O       0.81801   0.04876   0.45725  -0.54686
O          O       0.59619   0.81196   0.25480  -0.61846
O          O       0.86659   0.97948   0.58598  -0.55751
O          O       0.16610   0.53707   0.44319  -0.46782
O          O       0.43470   0.19135   0.92305  -0.63460
O          O       0.65215   0.60257   0.80408  -0.63508
O          O       0.68199   0.45124   0.95725  -0.54694
O          O       0.90386   0.68803   0.75480  -0.61866
O          O       0.63342   0.52053   0.08598  -0.55773
O          O       0.33389   0.96287   0.94314  -0.46737
O          O       0.93473   0.69127   0.57691  -0.63490
O          O       0.15223   0.10252   0.69593  -0.63486
O          O       0.18198   0.95123   0.54277  -0.54721
O          O       0.40395   0.18802   0.74520  -0.61877
O          O       0.13342   0.02051   0.41403  -0.55786
O          O       0.83399   0.46281   0.55672  -0.46773
O          O       0.56524   0.80872   0.07686  -0.63517
O          O       0.34778   0.39748   0.19593  -0.63499
O          O       0.31802   0.54877   0.04278  -0.54683
O          O       0.09606   0.31198   0.24520  -0.61852
O          O       0.36659   0.47949   0.91404  -0.55754
O          O       0.66599   0.03717   0.05668  -0.46807

