data_crystal

_audit_creation_method 'AiiDA-DDEC plugin'

_cell_length_a        10.28054
_cell_length_b        10.29111
_cell_length_c        14.30529

_cell_angle_alpha     89.92295
_cell_angle_beta     90.03983
_cell_angle_gamma     90.19237

_symmetry_space_group_name_Hall 'P 1'
_symmetry_space_group_name_H-M  'P 1'

loop_
_symmetry_equiv_pos_as_xyz
 'x,y,z'

loop_
_atom_site_label
_atom_site_type_symbol
_atom_site_fract_x
_atom_site_fract_y
_atom_site_fract_z
_atom_site_charge
Er         Er      0.35906   0.64167   0.87581   2.16694
Er         Er      0.64091   0.35836   0.37579   2.16750
Er         Er      0.35824   0.35740   0.62704   2.16468
Er         Er      0.63936   0.64243   0.12512   2.16307
H          H       0.42019   0.04369   0.86105   0.13969
H          H       0.57857   0.95734   0.36068   0.13544
H          H       0.95701   0.42017   0.61180   0.13955
H          H       0.04177   0.58065   0.11162   0.13571
H          H       0.57980   0.04397   0.13986   0.13664
H          H       0.42004   0.95563   0.63963   0.13579
H          H       0.04160   0.42039   0.39030   0.13472
H          H       0.95904   0.58142   0.88998   0.13491
H          H       0.49950   0.40545   0.00052   0.10390
H          H       0.50013   0.59477   0.50015   0.10476
H          H       0.59598   0.50128   0.75160   0.10573
H          H       0.40391   0.49884   0.25045   0.10390
C          C       0.41225   0.30733   0.83858   0.66156
C          C       0.45438   0.09664   0.92211  -0.07510
C          C       0.45516   0.23265   0.92206  -0.04735
C          C       0.58734   0.69292   0.33802   0.65983
C          C       0.54447   0.90392   0.42162  -0.07216
C          C       0.54417   0.76782   0.42145  -0.04806
C          C       0.69132   0.41231   0.59035   0.66762
C          C       0.90428   0.45516   0.67264  -0.07519
C          C       0.76817   0.45601   0.67289  -0.04790
C          C       0.30608   0.58741   0.08830   0.66349
C          C       0.09495   0.54585   0.17240  -0.07353
C          C       0.23113   0.54446   0.17200  -0.04734
C          C       0.58755   0.30768   0.16257   0.66127
C          C       0.54492   0.09693   0.07904  -0.07053
C          C       0.54437   0.23282   0.07915  -0.04704
C          C       0.41249   0.69220   0.66241   0.66116
C          C       0.45458   0.90300   0.57869  -0.07086
C          C       0.45554   0.76711   0.57883  -0.04811
C          C       0.30638   0.41006   0.41260   0.66029
C          C       0.09474   0.45497   0.32935  -0.07185
C          C       0.23100   0.45489   0.32942  -0.04519
C          C       0.69386   0.59054   0.91263   0.66063
C          C       0.90541   0.54673   0.82932  -0.07126
C          C       0.76924   0.54637   0.82973  -0.04561
C          C       0.49969   0.88422   0.00139   0.68641
C          C       0.49934   0.02905   0.00068  -0.04722
C          C       0.49968   0.30004   0.00058  -0.08054
C          C       0.49933   0.11622   0.50135   0.68589
C          C       0.49942   0.97125   0.50021  -0.04714
C          C       0.49999   0.70020   0.50016  -0.07896
C          C       0.11771   0.50024   0.75053   0.68768
C          C       0.97264   0.50075   0.75086  -0.04749
C          C       0.70150   0.50127   0.75144  -0.07882
C          C       0.88151   0.50064   0.25041   0.68786
C          C       0.02689   0.50081   0.25092  -0.04666
C          C       0.29836   0.49946   0.25062  -0.07879
O          O       0.41614   0.82630   0.94985  -0.69965
O          O       0.39036   0.42857   0.84725  -0.72659
O          O       0.40179   0.24693   0.76078  -0.67089
O          O       0.58294   0.17408   0.44975  -0.69988
O          O       0.60944   0.57177   0.34738  -0.72466
O          O       0.59768   0.75281   0.25986  -0.67004
O          O       0.17356   0.41553   0.69936  -0.69613
O          O       0.57053   0.38970   0.60167  -0.72601
O          O       0.74825   0.40222   0.51129  -0.67681
O          O       0.82516   0.58483   0.19899  -0.69270
O          O       0.42767   0.60952   0.09743  -0.73115
O          O       0.24670   0.59783   0.01007  -0.66992
O          O       0.58399   0.83008   0.05407  -0.69308
O          O       0.60958   0.42892   0.15284  -0.72554
O          O       0.59777   0.24777   0.24063  -0.67086
O          O       0.41594   0.17050   0.55450  -0.69150
O          O       0.39011   0.57108   0.65291  -0.72488
O          O       0.40234   0.75201   0.74048  -0.67199
O          O       0.82512   0.41550   0.30145  -0.69840
O          O       0.42806   0.39019   0.40292  -0.72788
O          O       0.24703   0.39608   0.49055  -0.67109
O          O       0.17478   0.58479   0.80142  -0.69527
O          O       0.57207   0.61000   0.90292  -0.73065
O          O       0.75317   0.60412   0.99062  -0.66834

