data_crystal

_audit_creation_method 'AiiDA-DDEC plugin'

_cell_length_a         7.49607
_cell_length_b         9.72428
_cell_length_c        13.54514

_cell_angle_alpha     70.74163
_cell_angle_beta     75.53440
_cell_angle_gamma     87.64622

_symmetry_space_group_name_Hall 'P 1'
_symmetry_space_group_name_H-M  'P 1'

loop_
_symmetry_equiv_pos_as_xyz
 'x,y,z'

loop_
_atom_site_label
_atom_site_type_symbol
_atom_site_fract_x
_atom_site_fract_y
_atom_site_fract_z
_atom_site_charge
Zn         Zn     -0.00011   0.50057  -0.00028   0.69993
Zn         Zn      0.49865  -0.00014  -0.00013   0.89485
H          H       0.86391   0.27109   0.22331   0.11854
H          H       0.01172   0.71160   0.12038   0.11821
H          H       0.87383   0.24009   0.41313   0.12595
H          H       0.02600   0.70026   0.30345   0.12111
H          H       0.93100   0.33893   0.54216   0.10817
H          H       0.33680   0.69457   0.15333   0.07993
H          H       0.71575   0.97749   0.17022   0.11388
H          H       0.34005   0.51962   0.33418   0.11589
H          H       0.71834   0.82543   0.35643   0.12086
H          H       0.61594   0.61847   0.51069   0.10707
H          H       0.13569   0.72960   0.77601   0.11880
H          H       0.98640   0.28937   0.87976   0.11895
H          H       0.12704   0.75984   0.58609   0.12647
H          H       0.97256   0.29993   0.69676   0.12123
H          H       0.06929   0.66081   0.45751   0.10847
H          H       0.66107   0.30448   0.84706   0.07900
H          H       0.28098   0.02334   0.82925   0.11449
H          H       0.66006   0.47959   0.66587   0.11614
H          H       0.28041   0.17565   0.64261   0.12104
H          H       0.38451   0.38184   0.48869   0.10664
C          C       0.75383   0.74585   0.94803   0.55376
C          C       0.56611   0.36568   0.03262   0.07191
C          C       0.61721   0.61764   0.97445   0.04119
C          C       0.90145   0.36189   0.24549   0.09500
C          C       0.98245   0.60930   0.18775   0.08621
C          C       0.64467   0.21874   0.07532   0.55576
C          C       0.90638   0.34634   0.35052  -0.17773
C          C       0.99040   0.60150   0.29063  -0.17655
C          C       0.95572   0.46696   0.37517   0.12894
C          C       0.97089   0.44770   0.48382  -0.13180
C          C       0.42223   0.71666   0.20087   0.07912
C          C       0.63206   0.87671   0.20976   0.10652
C          C       0.42358   0.62071   0.30273  -0.18774
C          C       0.63309   0.78999   0.31422  -0.17860
C          C       0.52857   0.65761   0.36412   0.13050
C          C       0.53795   0.56818   0.47251  -0.12064
C          C       0.24494   0.25506   0.05167   0.55133
C          C       0.43234   0.63539   0.96762   0.07059
C          C       0.38133   0.38336   0.02565   0.04077
C          C       0.09817   0.63869   0.75395   0.09370
C          C       0.01613   0.39141   0.81218   0.08472
C          C       0.35290   0.78206   0.92479   0.55533
C          C       0.09376   0.65382   0.64892  -0.17887
C          C       0.00852   0.39879   0.70933  -0.17748
C          C       0.04410   0.53305   0.62455   0.12996
C          C       0.02928   0.55207   0.51588  -0.13143
C          C       0.57592   0.28287   0.79918   0.08080
C          C       0.36537   0.12377   0.78979   0.10318
C          C       0.57576   0.37890   0.69716  -0.18787
C          C       0.36551   0.21055   0.68516  -0.17740
C          C       0.47101   0.34251   0.63546   0.12976
C          C       0.46240   0.43204   0.52697  -0.11832
N          N       0.68104   0.48292   0.00630  -0.23045
N          N       0.94182   0.49103   0.16476  -0.21907
N          N       0.52331   0.84408   0.15410  -0.21714
N          N       0.31754   0.51805   0.99390  -0.23024
N          N       0.05716   0.50981   0.83487  -0.21590
N          N       0.47387   0.15589   0.84579  -0.21514
O          O       0.91754   0.71455   0.95561  -0.50503
O          O       0.69843   0.87382   0.91946  -0.54692
O          O       0.69378   0.14525   0.01029  -0.57580
O          O       0.65856   0.18763   0.17005  -0.50941
O          O       0.08219   0.28649   0.04196  -0.50528
O          O       0.30021   0.12724   0.08132  -0.54556
O          O       0.30131   0.85532   0.98981  -0.57487
O          O       0.34089   0.81283   0.82977  -0.50944

