data_crystal

_audit_creation_method 'AiiDA-DDEC plugin'

_cell_length_a         7.90559
_cell_length_b        14.30482
_cell_length_c        14.30504

_cell_angle_alpha     69.54954
_cell_angle_beta     88.62597
_cell_angle_gamma     88.62549

_symmetry_space_group_name_Hall 'P 1'
_symmetry_space_group_name_H-M  'P 1'

loop_
_symmetry_equiv_pos_as_xyz
 'x,y,z'

loop_
_atom_site_label
_atom_site_type_symbol
_atom_site_fract_x
_atom_site_fract_y
_atom_site_fract_z
_atom_site_charge
Ce         Ce      0.59983   0.08119   0.04855   1.95124
Ce         Ce      0.09965   0.04859   0.08132   1.95130
H          H       0.10305   0.69504   0.87536   0.11106
H          H       0.02861   0.90474   0.57867   0.10854
H          H       0.86736   0.60167   0.65536   0.10920
H          H       0.06691   0.34729   0.05784   0.13829
H          H       0.13889   0.53619   0.96341   0.12904
H          H       0.38947   0.09625   0.69989   0.14417
H          H       0.23505   0.99213   0.60782   0.12796
H          H       0.63617   0.73419   0.33351   0.14133
H          H       0.71890   0.64910   0.52265   0.13223
H          H       0.60305   0.87537   0.69504   0.11131
H          H       0.52861   0.57868   0.90473   0.10836
H          H       0.36736   0.65537   0.60166   0.10920
H          H       0.56690   0.05785   0.34729   0.13846
H          H       0.63889   0.96342   0.53618   0.12901
H          H       0.88947   0.69990   0.09624   0.14416
H          H       0.73505   0.60783   0.99212   0.12785
H          H       0.13617   0.33351   0.73418   0.14136
H          H       0.21890   0.52265   0.64910   0.13232
C          C       0.98017   0.63702   0.77427   0.08365
C          C       0.05819   0.71187   0.79988  -0.16807
C          C       0.07984   0.80804   0.72961   0.08475
C          C       0.01835   0.82946   0.63273  -0.19090
C          C       0.94082   0.75603   0.60511   0.08159
C          C       0.92370   0.65982   0.67658  -0.17713
C          C       0.96373   0.53640   0.84755  -0.00910
C          C       0.89539   0.35784   0.93858  -0.13515
C          C       0.01134   0.39406   0.98803  -0.10327
C          C       0.04896   0.49519   0.93718  -0.16728
C          C       0.82488   0.25803   0.97039   0.59142
C          C       0.16639   0.88526   0.75451  -0.01891
C          C       0.31299   0.98402   0.83991  -0.14087
C          C       0.32291   0.02718   0.73664  -0.09789
C          C       0.23818   0.97203   0.68829  -0.16242
C          C       0.38993   0.02071   0.91191   0.57653
C          C       0.87595   0.77794   0.50508  -0.02432
C          C       0.79649   0.85690   0.32705  -0.11510
C          C       0.72219   0.76481   0.37292  -0.09976
C          C       0.76795   0.71983   0.47336  -0.16529
C          C       0.76140   0.92683   0.22709   0.59145
C          C       0.48017   0.77428   0.63702   0.08380
C          C       0.55819   0.79989   0.71186  -0.16800
C          C       0.57984   0.72962   0.80803   0.08459
C          C       0.51835   0.63274   0.82945  -0.19100
C          C       0.44082   0.60512   0.75602   0.08159
C          C       0.42370   0.67658   0.65981  -0.17708
C          C       0.46373   0.84756   0.53640  -0.00945
C          C       0.39539   0.93858   0.35783  -0.13508
C          C       0.51133   0.98804   0.39405  -0.10300
C          C       0.54895   0.93719   0.49518  -0.16728
C          C       0.32488   0.97040   0.25802   0.59150
C          C       0.66639   0.75452   0.88525  -0.01875
C          C       0.81301   0.83992   0.98400  -0.14119
C          C       0.82291   0.73664   0.02718  -0.09806
C          C       0.73818   0.68829   0.97202  -0.16279
C          C       0.88996   0.91190   0.02071   0.57705
C          C       0.37595   0.50508   0.77794  -0.02450
C          C       0.29650   0.32704   0.85690  -0.11520
C          C       0.22219   0.37292   0.76481  -0.09984
C          C       0.26795   0.47336   0.71983  -0.16510
C          C       0.26140   0.22706   0.92685   0.59116
S          S       0.83272   0.44921   0.82831   0.15443
S          S       0.20115   0.87445   0.87685   0.18623
S          S       0.92472   0.88719   0.40828   0.16185
S          S       0.33272   0.82832   0.44920   0.15423
S          S       0.70115   0.87686   0.87444   0.18683
S          S       0.42472   0.40828   0.88719   0.16166
O          O       0.88128   0.18992   0.05101  -0.70783
O          O       0.70460   0.24016   0.92193  -0.57386
O          O       0.50739   0.08377   0.88362  -0.55565
O          O       0.34160   0.98598   0.00552  -0.69945
O          O       0.64800   0.90707   0.17571  -0.57469
O          O       0.84097   0.01134   0.19373  -0.71795
O          O       0.38128   0.05100   0.18991  -0.70750
O          O       0.20459   0.92193   0.24016  -0.57427
O          O       0.00738   0.88363   0.08379  -0.55582
O          O       0.84164   0.00552   0.98596  -0.69969
O          O       0.14797   0.17571   0.90709  -0.57434
O          O       0.34099   0.19371   0.01135  -0.71786

