data_crystal

_audit_creation_method 'AiiDA-DDEC plugin'

_cell_length_a         9.13947
_cell_length_b        10.98632
_cell_length_c        11.52153

_cell_angle_alpha     117.87222
_cell_angle_beta     100.47449
_cell_angle_gamma     98.55581

_symmetry_space_group_name_Hall 'P 1'
_symmetry_space_group_name_H-M  'P 1'

loop_
_symmetry_equiv_pos_as_xyz
 'x,y,z'

loop_
_atom_site_label
_atom_site_type_symbol
_atom_site_fract_x
_atom_site_fract_y
_atom_site_fract_z
_atom_site_charge
Zn         Zn      0.30813   0.37723   0.37858   0.74482
Zn         Zn      0.69187   0.62277   0.62142   0.74484
Zn         Zn      0.00000   0.50000   0.50000   0.88147
H          H       0.88415   0.58909   0.19367   0.11806
H          H       0.23457   0.99640   0.41902   0.12306
H          H       0.86244   0.18438   0.51688   0.12109
H          H       0.20274   0.37280   0.00439   0.11793
H          H       0.22194   0.76295   0.80361   0.14286
H          H       0.54623   0.81850   0.85942   0.13819
H          H       0.11584   0.41091   0.80633   0.11808
H          H       0.76543   0.00361   0.58098   0.12305
H          H       0.13756   0.81562   0.48312   0.12104
H          H       0.79726   0.62720   0.99561   0.11796
H          H       0.77806   0.23705   0.19639   0.14286
H          H       0.45376   0.18151   0.14058   0.13820
C          C       0.93343   0.55043   0.10807  -0.10040
C          C       0.13226   0.99667   0.45462  -0.10443
C          C       0.11034   0.20811   0.42699   0.58413
C          C       0.92075   0.10266   0.50923  -0.09342
C          C       0.11404   0.42797   0.00119  -0.09975
C          C       0.29441   0.71101   0.74231  -0.02952
C          C       0.05330   0.09967   0.46352  -0.03234
C          C       0.09755   0.45693   0.22895   0.58681
C          C       0.04753   0.47811   0.10989  -0.03698
C          C       0.45376   0.73825   0.76945  -0.04606
C          C       0.06656   0.44957   0.89192  -0.10039
C          C       0.86773   0.00333   0.54538  -0.10448
C          C       0.88966   0.79189   0.57301   0.58409
C          C       0.07925   0.89734   0.49077  -0.09351
C          C       0.88596   0.57203  -0.00120  -0.09975
C          C       0.70559   0.28899   0.25769  -0.02943
C          C       0.94670   0.90033   0.53648  -0.03232
C          C       0.90245   0.54307   0.77105   0.58668
C          C       0.95247   0.52189   0.89011  -0.03685
C          C       0.54623   0.26175   0.23054  -0.04603
N          N       0.34742   0.55684   0.56281  -0.06169
N          N       0.23231   0.59808   0.61371  -0.13419
N          N       0.48348   0.64061   0.65621  -0.14976
N          N       0.65257   0.44316   0.43719  -0.06170
N          N       0.76769   0.40192   0.38628  -0.13434
N          N       0.51652   0.35939   0.34378  -0.14970
O          O       0.19985   0.38605   0.22218  -0.54709
O          O       0.24402   0.21468   0.40474  -0.53538
O          O       0.03783   0.50976   0.32599  -0.56425
O          O       0.02670   0.28748   0.41889  -0.58243
O          O       0.80015   0.61395   0.77781  -0.54704
O          O       0.75598   0.78532   0.59525  -0.53532
O          O       0.96217   0.49024   0.67401  -0.56420
O          O       0.97330   0.71252   0.58111  -0.58247

