data_crystal

_audit_creation_method 'AiiDA-DDEC plugin'

_cell_length_a         8.58463
_cell_length_b         8.95344
_cell_length_c        11.52736

_cell_angle_alpha     77.46987
_cell_angle_beta     74.65133
_cell_angle_gamma     74.72095

_symmetry_space_group_name_Hall 'P 1'
_symmetry_space_group_name_H-M  'P 1'

loop_
_symmetry_equiv_pos_as_xyz
 'x,y,z'

loop_
_atom_site_label
_atom_site_type_symbol
_atom_site_fract_x
_atom_site_fract_y
_atom_site_fract_z
_atom_site_charge
U          U       0.47760   0.75294   0.81483   1.40481
U          U       0.51683   0.25337   0.18038   1.28975
U          U       0.48423   0.00154   0.51713   1.43028
H          H       0.78209   0.14643   0.95531   0.07462
H          H       0.01010   0.89498   0.39721   0.12047
H          H       0.28034   0.69354   0.29672   0.11108
H          H       0.96801   0.03852   0.13257   0.08900
H          H       0.42590   0.77021   0.17764   0.09348
H          H       0.21677   0.85347   0.04541   0.07893
H          H       0.01815   0.29906   0.74024   0.11913
H          H       0.98513   0.09384   0.33056   0.09705
H          H       0.94933   0.77443   0.11333   0.10810
H          H       0.02766   0.90043   0.67336   0.08985
H          H       0.02734   0.96077   0.87207   0.07205
H          H       0.72354   0.29736   0.69996   0.11375
H          H      -0.00214   0.10092   0.60951   0.11155
H          H       0.57886   0.22021   0.81966   0.09023
H          H       0.04724   0.22374   0.88954   0.10407
H          H       0.75951   0.95381   0.82205   0.07416
H          H       0.25072   0.03953   0.17587   0.06487
H          H       0.99068   0.69452   0.26023   0.11762
C          C       0.29263   0.78801   0.21871  -0.18529
C          C       0.03204   0.97440   0.30928  -0.18336
C          C       0.29094   0.98140   0.35258   0.62891
C          C       0.01571   0.78438   0.18001  -0.16371
C          C       0.28108   0.60791   0.08665   0.63421
C          C       0.20225   0.76490   0.12759  -0.13313
C          C       0.79733   0.23565   0.87313  -0.13336
C          C       0.22109   0.95056   0.25671  -0.09792
C          C       0.25167   0.02100   0.74295   0.06909
C          C       0.78715   0.04637   0.74470  -0.09552
C          C       0.71195   0.20809   0.78151  -0.19273
C          C       0.98549   0.21295   0.82127  -0.17198
C          C       0.71385   0.39620   0.90703   0.64090
C          C       0.97593   0.01944   0.69515  -0.19635
C          C       0.05984   0.04616   0.78843  -0.02271
C          C       0.71093   0.02171   0.65088   0.63365
C          C       0.76349   0.96854   0.25126   0.46672
C          C       0.94772   0.95046   0.21473  -0.09581
O          O       0.29816   0.13482   0.64748  -0.57586
O          O       0.32559   0.60003   0.97354  -0.60058
O          O       0.68881   0.12300   0.55574  -0.56479
O          O       0.70152   0.89969   0.35700  -0.59688
O          O       0.66066   0.40849   0.02272  -0.63851
O          O       0.33011   0.98647   0.83818  -0.61363
O          O       0.68242   0.01335   0.16370  -0.61584
O          O       0.33778   0.11309   0.33879  -0.65693
O          O       0.30416   0.48612   0.16915  -0.59308
O          O       0.66787   0.88805   0.66432  -0.65829
O          O       0.69514   0.51177   0.82396  -0.57477
O          O       0.30179   0.88353   0.44977  -0.56733

