data_crystal

_audit_creation_method 'AiiDA-DDEC plugin'

_cell_length_a        13.51677
_cell_length_b        13.71240
_cell_length_c        15.13866

_cell_angle_alpha     97.28063
_cell_angle_beta     90.29834
_cell_angle_gamma     117.40588

_symmetry_space_group_name_Hall 'P 1'
_symmetry_space_group_name_H-M  'P 1'

loop_
_symmetry_equiv_pos_as_xyz
 'x,y,z'

loop_
_atom_site_label
_atom_site_type_symbol
_atom_site_fract_x
_atom_site_fract_y
_atom_site_fract_z
_atom_site_charge
Tb         Tb      0.98963   0.86135   0.97725   2.02042
Tb         Tb      0.37141   0.86719   0.48119   2.01699
Tb         Tb      0.01038   0.13863   0.02278   2.02042
Tb         Tb      0.62911   0.13388   0.51963   2.01758
H          H       0.28210   0.27509   0.88142   0.12409
H          H       0.48614   0.25884   0.66700   0.14880
H          H       0.19994   0.96114   0.72171   0.14225
H          H       0.44780   0.43517   0.92674   0.07138
H          H       0.36170   0.45253   0.84677   0.09784
H          H       0.53005   0.62862   0.92450   0.08149
H          H       0.61778   0.58328   0.86318   0.09558
H          H       0.47606   0.72560   0.67110   0.15141
H          H       0.74652   0.04952   0.76806   0.13916
H          H       0.70167   0.76782   0.89290   0.12949
H          H       0.71790   0.72490   0.11857   0.12414
H          H       0.51385   0.74117   0.33300   0.14918
H          H       0.80006   0.03885   0.27828   0.14204
H          H       0.55220   0.56483   0.07325   0.07134
H          H       0.63831   0.54746   0.15323   0.09786
H          H       0.46995   0.37138   0.07550   0.08149
H          H       0.38222   0.41672   0.13682   0.09551
H          H       0.52393   0.27438   0.32889   0.15097
H          H       0.25348   0.95047   0.23194   0.13928
H          H       0.29834   0.23218   0.10709   0.12940
C          C       0.13709   0.06012   0.86278   0.66719
C          C       0.23317   0.11308   0.80755  -0.02109
C          C       0.30201   0.22861   0.82719  -0.21983
C          C       0.39465   0.28054   0.77777   0.25113
C          C       0.41566   0.21746   0.70662  -0.17582
C          C       0.34444   0.10340   0.68615  -0.02233
C          C       0.25373   0.05002   0.73755  -0.11822
C          C       0.36024   0.03444   0.60928   0.63750
C          C       0.44512   0.46023   0.86074  -0.00737
C          C       0.53446   0.57881   0.86293  -0.00990
C          C       0.57976   0.73231   0.78359   0.25264
C          C       0.54817   0.77793   0.71763  -0.16862
C          C       0.60912   0.89126   0.71170  -0.02950
C          C       0.70088   0.96125   0.77199  -0.11774
C          C       0.73243   0.91503   0.83689  -0.01731
C          C       0.67364   0.80085   0.84234  -0.22479
C          C       0.82831   0.98753   0.90185   0.63613
C          C       0.57313   0.93754   0.64178   0.66535
C          C       0.86290   0.93988   0.13722   0.66765
C          C       0.76682   0.88692   0.19245  -0.02125
C          C       0.69799   0.77138   0.17280  -0.22023
C          C       0.60536   0.71947   0.22224   0.25113
C          C       0.58436   0.78256   0.29339  -0.17575
C          C       0.65555   0.89662   0.31387  -0.02229
C          C       0.74627   0.94998   0.26246  -0.11843
C          C       0.63975   0.96565   0.39077   0.63778
C          C       0.55488   0.53976   0.13925  -0.00743
C          C       0.46554   0.42119   0.13707  -0.00974
C          C       0.42024   0.26768   0.21641   0.25271
C          C       0.45182   0.22206   0.28236  -0.16896
C          C       0.39091   0.10873   0.28830  -0.02895
C          C       0.29913   0.03875   0.22801  -0.11762
C          C       0.26757   0.08497   0.16310  -0.01724
C          C       0.32636   0.19915   0.15765  -0.22501
C          C       0.17169   0.01247   0.09815   0.63585
C          C       0.42697   0.06248   0.35833   0.66470
N          N       0.85239   0.63986   0.99144   0.72205
N          N       0.27190   0.64283   0.49768   0.72548
N          N       0.14761   0.36014   0.00855   0.72203
N          N       0.72815   0.35722   0.50230   0.72477
O          O       0.95909   0.68520   0.01100  -0.51832
O          O       0.82173   0.69191   0.93905  -0.57329
O          O       0.78503   0.55770   0.02134  -0.31750
O          O       0.09865   0.95700   0.87040  -0.67675
O          O       0.09911   0.12330   0.90123  -0.67414
O          O       0.46880   0.39128   0.79326  -0.18752
O          O       0.51385   0.62168   0.78638  -0.18639
O          O       0.88522   0.94592   0.93797  -0.78017
O          O       0.85533   0.08967   0.92390  -0.59314
O          O       0.64056   0.03523   0.62512  -0.68504
O          O       0.47630   0.87721   0.60223  -0.67049
O          O       0.28123   0.93824   0.58145  -0.59783
O          O       0.45399   0.07103   0.57131  -0.77129
O          O       0.22200   0.70360   0.51885  -0.54727
O          O       0.35387   0.68581   0.44606  -0.56556
O          O       0.24685   0.55575   0.52577  -0.30131
O          O       0.04091   0.31480   0.98900  -0.51863
O          O       0.17827   0.30808   0.06095  -0.57305
O          O       0.21497   0.44230   0.97865  -0.31749
O          O       0.90136   0.04300   0.12960  -0.67724
O          O       0.90090   0.87670   0.09876  -0.67429
O          O       0.53120   0.60872   0.20674  -0.18766
O          O       0.48616   0.37832   0.21361  -0.18655
O          O       0.11477   0.05408   0.06202  -0.78038
O          O       0.14466   0.91033   0.07609  -0.59275
O          O       0.35947   0.96475   0.37488  -0.68359
O          O       0.52376   0.12286   0.39797  -0.67125
O          O       0.71874   0.06174   0.41870  -0.59782
O          O       0.54599   0.92901   0.42875  -0.77089
O          O       0.77806   0.29653   0.48120  -0.54448
O          O       0.64614   0.31424   0.55395  -0.56590
O          O       0.75317   0.44432   0.47420  -0.29875

