data_crystal

_audit_creation_method 'AiiDA-DDEC plugin'

_cell_length_a         8.53150
_cell_length_b        10.58182
_cell_length_c        14.63907

_cell_angle_alpha     103.12034
_cell_angle_beta     104.57071
_cell_angle_gamma     97.62342

_symmetry_space_group_name_Hall 'P 1'
_symmetry_space_group_name_H-M  'P 1'

loop_
_symmetry_equiv_pos_as_xyz
 'x,y,z'

loop_
_atom_site_label
_atom_site_type_symbol
_atom_site_fract_x
_atom_site_fract_y
_atom_site_fract_z
_atom_site_charge
Sm         Sm      0.31401   0.32699   0.32240   1.94471
Sm         Sm      0.68592   0.67200   0.67636   1.94454
H          H       0.19981   0.64046   0.27772   0.11361
H          H       0.16793   0.79551   0.17050   0.12693
H          H       0.60580   0.06579   0.37139   0.12284
H          H       0.63544   0.91108   0.47752   0.10268
H          H       0.84406   0.38847   0.09195   0.13672
H          H       0.30711   0.53054   0.04766   0.13121
H          H       0.11197   0.91260   0.36157   0.11128
H          H       0.95077   0.23116   0.53118   0.13140
H          H       0.79927   0.35854   0.72188   0.11338
H          H       0.83103   0.20326   0.82910   0.12547
H          H       0.39363   0.93294   0.62858   0.12286
H          H       0.36381   0.08698   0.52186   0.10321
H          H       0.15569   0.61224   0.90757   0.13708
H          H       0.69238   0.46995   0.95176   0.13102
H          H       0.88821   0.08690   0.63833   0.11214
H          H       0.04945   0.76854   0.46888   0.13127
C          C       0.42045   0.76557   0.38300  -0.02306
C          C       0.28846   0.73290   0.29634  -0.09378
C          C       0.27041   0.81915   0.23728  -0.08672
C          C       0.38537   0.93952   0.26420  -0.01030
C          C       0.51817   0.97230   0.35067  -0.08942
C          C       0.53470   0.88622   0.41001  -0.08343
C          C       0.43817   0.67193   0.44615   0.65572
C          C       0.36353   0.03373   0.20203   0.56986
C          C       0.08314   0.45540   0.07687  -0.01936
C          C       0.90972   0.43789   0.05089  -0.08520
C          C       0.17305   0.51777   0.02566  -0.09525
C          C       0.16995   0.40883   0.16047   0.55440
C          C       0.03365   0.07900   0.44052  -0.01224
C          C       0.06202   0.94905   0.42184  -0.08685
C          C       0.97096   0.12989   0.51855  -0.08181
C          C       0.08560   0.16678   0.38306   0.54312
C          C       0.57924   0.23292   0.61622  -0.02251
C          C       0.71099   0.26585   0.70303  -0.09219
C          C       0.72887   0.17969   0.76219  -0.08746
C          C       0.61396   0.05937   0.73545  -0.01083
C          C       0.48120   0.02642   0.64893  -0.08907
C          C       0.46489   0.11221   0.58931  -0.08435
C          C       0.56179   0.32673   0.55319   0.65436
C          C       0.63635   0.96552   0.79793   0.56984
C          C       0.91636   0.54519   0.92257  -0.01823
C          C       0.08986   0.56278   0.94856  -0.08460
C          C       0.82647   0.48283   0.97379  -0.09501
C          C       0.82976   0.59211   0.83915   0.55454
C          C       0.96662   0.92074   0.55936  -0.01329
C          C       0.93806   0.05059   0.57800  -0.08756
C          C       0.02917   0.86979   0.48132  -0.08198
C          C       0.91436   0.83290   0.61668   0.54375
O          O       0.37444   0.54953   0.40745  -0.66255
O          O       0.51425   0.71910   0.53718  -0.64466
O          O       0.28488   0.99144   0.11251  -0.31912
O          O       0.42514   0.15804   0.24225  -0.60529
O          O       0.08392   0.36039   0.21003  -0.59449
O          O       0.32706   0.41920   0.18503  -0.59329
O          O       0.11879   0.11799   0.30344  -0.53646
O          O       0.10951   0.29307   0.41645  -0.52187
O          O       0.62722   0.44904   0.59200  -0.66464
O          O       0.48389   0.27944   0.46249  -0.64356
O          O       0.71536   0.00849   0.88739  -0.31683
O          O       0.57551   0.84105   0.75814  -0.60183
O          O       0.91650   0.64068   0.78997  -0.59323
O          O       0.67271   0.58196   0.81441  -0.59393
O          O       0.88064   0.88159   0.69609  -0.53647
O          O       0.89057   0.70665   0.58316  -0.52524

