data_crystal

_audit_creation_method 'AiiDA-DDEC plugin'

_cell_length_a        12.27888
_cell_length_b        14.11602
_cell_length_c        14.02126

_cell_angle_alpha     117.52759
_cell_angle_beta     110.30003
_cell_angle_gamma     92.98870

_symmetry_space_group_name_Hall 'P 1'
_symmetry_space_group_name_H-M  'P 1'

loop_
_symmetry_equiv_pos_as_xyz
 'x,y,z'

loop_
_atom_site_label
_atom_site_type_symbol
_atom_site_fract_x
_atom_site_fract_y
_atom_site_fract_z
_atom_site_charge
Mn         Mn      0.82146   0.66536   0.20978   1.06198
Mn         Mn      0.17854   0.33463   0.79023   1.06155
Mn         Mn      0.50000   0.50000  -0.00000   1.21238
Mn         Mn      0.00003   0.49999   0.00007   0.67294
Ge         Ge      0.63635   0.10740   0.86802   0.71457
Ge         Ge      0.33663   0.96374   0.65120   0.73750
Ge         Ge      0.50718   0.84824   0.80437   0.72056
Ge         Ge      0.58215   0.87794   0.59678   0.73311
Ge         Ge      0.36365   0.89259   0.13198   0.71452
Ge         Ge      0.66337   0.03625   0.34879   0.73734
Ge         Ge      0.49282   0.15175   0.19563   0.72068
Ge         Ge      0.41785   0.12205   0.40321   0.73307
H          H       0.82377   0.26171   0.03885   0.14699
H          H       0.68778   0.29388   0.04767   0.14481
H          H       0.64065   0.31594   0.86631   0.13361
H          H       0.78935   0.30781   0.88024   0.11720
H          H       0.21365   0.09045   0.62334   0.13036
H          H       0.13396   0.99164   0.63697   0.14604
H          H       0.04765   0.97556   0.42971   0.12421
H          H       0.17300   0.93347   0.41151   0.11811
H          H       0.46469   0.66650   0.79519   0.14839
H          H       0.43779   0.77371   0.90989   0.12361
H          H       0.69264   0.75679   0.92570   0.13442
H          H       0.65759   0.85293   0.03820   0.13016
H          H       0.72796   0.79835   0.51048   0.15501
H          H       0.65406   0.87657   0.45079   0.12762
H          H       0.53603   0.64197   0.38085   0.13805
H          H       0.46434   0.72130   0.32485   0.12264
H          H       0.17623   0.73828   0.96116   0.14706
H          H       0.31222   0.70612   0.95233   0.14460
H          H       0.35936   0.68407   0.13370   0.13350
H          H       0.21067   0.69220   0.11977   0.11719
H          H       0.78635   0.90954   0.37666   0.13059
H          H       0.86604   0.00835   0.36303   0.14586
H          H       0.95234   0.02443   0.57028   0.12430
H          H       0.82699   0.06653   0.58849   0.11819
H          H       0.53531   0.33349   0.20480   0.14816
H          H       0.56221   0.22628   0.09011   0.12350
H          H       0.30735   0.24320   0.07430   0.13451
H          H       0.34241   0.14706   0.96180   0.13037
H          H       0.27204   0.20164   0.48952   0.15501
H          H       0.34594   0.12342   0.54921   0.12780
H          H       0.46397   0.35802   0.61915   0.13778
H          H       0.53566   0.27870   0.67514   0.12261
C          C       0.73237   0.26058   0.98786  -0.37957
C          C       0.73231   0.32939   0.92852  -0.28427
C          C       0.77587   0.44927   0.02316   0.65194
C          C       0.18631   0.00210   0.59157  -0.38752
C          C       0.11604   0.93539   0.45763  -0.26171
C          C       0.05156   0.81723   0.40987   0.62585
C          C       0.50192   0.75187   0.87004  -0.37368
C          C       0.62441   0.76812   0.96146  -0.26639
C          C       0.63176   0.69396   0.01353   0.65995
C          C       0.64059   0.81252   0.47214  -0.38328
C          C       0.55238   0.70713   0.36121  -0.26492
C          C       0.59594   0.65878   0.26350   0.66642
C          C       0.26763   0.73941   0.01214  -0.37934
C          C       0.26770   0.67061   0.07149  -0.28425
C          C       0.22413   0.55072   0.97687   0.65183
C          C       0.81369  -0.00211   0.40843  -0.38753
C          C       0.88396   0.06460   0.54237  -0.26208
C          C       0.94843   0.18279   0.59007   0.62674
C          C       0.49808   0.24812   0.12995  -0.37361
C          C       0.37558   0.23188   0.03854  -0.26643
C          C       0.36825   0.30604   0.98648   0.66017
C          C       0.35941   0.18747   0.52786  -0.38332
C          C       0.44762   0.29287   0.63879  -0.26470
C          C       0.40406   0.34122   0.73650   0.66595
S          S       0.45611   0.13411   0.79308  -0.44637
S          S       0.71679   0.04119   0.73683  -0.42029
S          S       0.63396   0.01247   0.95812  -0.42859
S          S       0.39898   0.89243   0.50586  -0.43746
S          S       0.31804   0.85612   0.72424  -0.37731
S          S       0.58157   0.76516   0.66871  -0.44532
S          S       0.54388   0.86588   0.20691  -0.44619
S          S       0.28321   0.95881   0.26316  -0.42021
S          S       0.36604   0.98753   0.04188  -0.42854
S          S       0.60102   0.10756   0.49414  -0.43742
S          S       0.68195   0.14387   0.27576  -0.37763
S          S       0.41843   0.23484   0.33129  -0.44553
O          O       0.70997   0.49665   0.07361  -0.54951
O          O       0.88502   0.50528   0.06273  -0.55362
O          O       0.98101   0.76421   0.29529  -0.65055
O          O       0.06487   0.77931   0.47571  -0.52997
O          O       0.73464   0.70886   0.08885  -0.57180
O          O       0.53493   0.62287   0.97723  -0.53626
O          O       0.70745   0.68039   0.29124  -0.54849
O          O       0.51238   0.59645   0.15788  -0.55884
O          O       0.29001   0.50334   0.92637  -0.54960
O          O       0.11501   0.49470   0.93736  -0.55335
O          O       0.01899   0.23578   0.70472  -0.65147
O          O       0.93513   0.22065   0.52434  -0.52921
O          O       0.26535   0.29113   0.91115  -0.57177
O          O       0.46506   0.37712   0.02277  -0.53648
O          O       0.29254   0.31960   0.70876  -0.54810
O          O       0.48762   0.40354   0.84212  -0.55884

