data_crystal

_audit_creation_method 'AiiDA-DDEC plugin'

_cell_length_a        10.85719
_cell_length_b        10.73706
_cell_length_c        12.07662

_cell_angle_alpha     69.85594
_cell_angle_beta     77.47942
_cell_angle_gamma     60.54451

_symmetry_space_group_name_Hall 'P 1'
_symmetry_space_group_name_H-M  'P 1'

loop_
_symmetry_equiv_pos_as_xyz
 'x,y,z'

loop_
_atom_site_label
_atom_site_type_symbol
_atom_site_fract_x
_atom_site_fract_y
_atom_site_fract_z
_atom_site_charge
Dy         Dy      0.54086   0.99168   0.16276   2.05747
Dy         Dy      0.46031   0.00886   0.83658   2.06261
Cu         Cu      0.00179   0.00127  -0.00113   0.71284
Cu         Cu     -0.00019  -0.00017   0.50054   0.71223
H          H       0.02239   0.25804   0.52436   0.10969
H          H       0.91316   0.53791   0.43258   0.12915
H          H       0.68102   0.48912   0.21796   0.13229
H          H       0.79100   0.21273   0.32228   0.10054
H          H       0.98484   0.73359   0.18499   0.10566
H          H       0.12969   0.45377   0.22951   0.13167
H          H       0.40904   0.52333   0.92965   0.13428
H          H       0.25327   0.79882   0.89428   0.09599
H          H       0.97805   0.74102   0.47564   0.10961
H          H       0.08676   0.46141   0.56759   0.12981
H          H       0.31911   0.51020   0.78230   0.13220
H          H       0.20952   0.78620   0.67783   0.10014
H          H       0.01452   0.26968   0.81424   0.10623
H          H       0.86934   0.54867   0.76958   0.13172
H          H       0.59028   0.47800   0.06981   0.13512
H          H       0.74693   0.20278   0.10516   0.09692
C          C       0.17862   0.97624   0.28274   0.00284
C          C       0.17445   0.98772   0.16431  -0.01616
C          C       0.28032   0.96386   0.35757   0.63079
C          C       0.26424   0.00256   0.05530   0.62761
C          C       0.94533   0.31435   0.45698   0.09215
C          C       0.88634   0.46782   0.40550  -0.14290
C          C       0.79068   0.53202   0.31737   0.03688
C          C       0.75550   0.43998   0.28615  -0.13379
C          C       0.81608   0.28850   0.34290   0.09345
C          C       0.72150   0.69634   0.25680   0.55947
C          C       0.07825   0.68218   0.12983   0.09035
C          C       0.15800   0.52848   0.15427  -0.13535
C          C       0.27911   0.46874   0.08181   0.03365
C          C       0.31437   0.56634   0.98616  -0.13245
C          C       0.22896   0.71855   0.96636   0.09929
C          C       0.37197   0.30334   0.11088   0.56058
C          C       0.82181   0.02212   0.71865   0.00270
C          C       0.82571   0.01122   0.83699  -0.01523
C          C       0.72005   0.03514   0.64355   0.62969
C          C       0.73525   0.99634   0.94505   0.62647
C          C       0.05500   0.68483   0.54311   0.09402
C          C       0.11373   0.53141   0.59465  -0.14492
C          C       0.20958   0.46714   0.68270   0.03606
C          C       0.24466   0.55913   0.71407  -0.13253
C          C       0.18426   0.71055   0.65727   0.09277
C          C       0.27915   0.30275   0.74264   0.56228
C          C       0.92104   0.32073   0.86943   0.08698
C          C       0.84060   0.47430   0.84487  -0.13423
C          C       0.71931   0.53344   0.91741   0.03500
C          C       0.68479   0.43527   0.01306  -0.13236
C          C       0.77096   0.28317   0.03295   0.09847
C          C       0.62572   0.69863   0.88835   0.56129
N          N       0.05533   0.97514   0.33653  -0.20498
N          N       0.97755   0.98336   0.25964  -0.05622
N          N       0.04949   0.99122   0.15527  -0.19663
N          N       0.91028   0.22665   0.42635  -0.22254
N          N       0.11342   0.77545   0.03691  -0.22686
N          N       0.94458   0.02429   0.66447  -0.20450
N          N       0.02185   0.01735   0.74088  -0.05390
N          N       0.95011   0.00944   0.84541  -0.19515
N          N       0.09016   0.77251   0.57369  -0.22204
N          N       0.88681   0.22675   0.96246  -0.22487
O          O       0.23157   0.98686   0.45665  -0.53749
O          O       0.40992   0.92474   0.31700  -0.69956
O          O       0.38090   0.00653   0.05517  -0.71641
O          O       0.22526   0.01355   0.95892  -0.62943
O          O       0.73423   0.78742   0.29321  -0.62069
O          O       0.64807   0.73917   0.16900  -0.61929
O          O       0.49019   0.25117   0.05184  -0.63157
O          O       0.33277   0.21882   0.19660  -0.61904
O          O       0.76831   0.01226   0.54414  -0.53851
O          O       0.59054   0.07534   0.68369  -0.69959
O          O       0.61854   0.99244   0.94443  -0.71621
O          O       0.77217   0.98536   0.04262  -0.63019
O          O       0.26559   0.21194   0.70681  -0.62046
O          O       0.35438   0.25992   0.82943  -0.62453
O          O       0.50657   0.75085   0.94628  -0.62875
O          O       0.66578   0.78317   0.80368  -0.61965

