data_crystal

_audit_creation_method 'AiiDA-DDEC plugin'

_cell_length_a         5.66258
_cell_length_b        11.49962
_cell_length_c        11.49931

_cell_angle_alpha     69.96965
_cell_angle_beta     75.57214
_cell_angle_gamma     75.57401

_symmetry_space_group_name_Hall 'P 1'
_symmetry_space_group_name_H-M  'P 1'

loop_
_symmetry_equiv_pos_as_xyz
 'x,y,z'

loop_
_atom_site_label
_atom_site_type_symbol
_atom_site_fract_x
_atom_site_fract_y
_atom_site_fract_z
_atom_site_charge
Cu         Cu      0.13360   0.60667   0.89546   0.22293
Cu         Cu      0.63360   0.39540   0.10665   0.22286
H          H       0.93146   0.87284   0.74579   0.14107
H          H       0.82383   0.02060   0.77820   0.12509
H          H       0.63899   0.89961   0.84104   0.14272
H          H       0.24318   0.77328   0.27424   0.12796
H          H       0.12854   0.93916   0.22322   0.15176
H          H       0.42359   0.87437   0.15103   0.13907
H          H       0.25284   0.64613   0.10947   0.27124
H          H       0.54810   0.12597   0.25717   0.13972
H          H       0.61906   0.98035   0.22130   0.12335
H          H       0.37621   0.10293   0.16086   0.14373
H          H       0.29120   0.22808   0.72745   0.12824
H          H       0.29040   0.06235   0.77839   0.15299
H          H       0.45041   0.12606   0.85006   0.13862
H          H       0.01177   0.35419   0.89521   0.27020
H          H       0.43117   0.24592   0.37269   0.14081
H          H       0.32395   0.27815   0.52054   0.12489
H          H       0.13884   0.34117   0.39968   0.14267
H          H       0.74312   0.77432   0.27319   0.12801
H          H       0.62842   0.72327   0.43908   0.15158
H          H       0.92356   0.65110   0.37430   0.13904
H          H       0.75278   0.60945   0.14610   0.27140
H          H       0.04759   0.75712   0.62604   0.13983
H          H       0.11908   0.72135   0.48035   0.12333
H          H       0.87619   0.66074   0.60276   0.14372
H          H       0.79103   0.22746   0.72810   0.12813
H          H       0.79033   0.27844   0.56233   0.15308
H          H       0.95040   0.35006   0.62610   0.13872
H          H       0.51171   0.39530   0.85414   0.26996
C          C       0.82917   0.91881   0.81750  -0.43215
C          C       0.95042   0.86777   0.92986   0.19107
C          C       0.98506   0.93311   0.00784  -0.14243
C          C       0.11686   0.84204   0.09720   0.19343
C          C       0.23193   0.85743   0.19228  -0.42948
C          C       0.56271   0.08243   0.18387  -0.43049
C          C       0.74635   0.13392   0.07197   0.19272
C          C       0.92502   0.06864   0.99355  -0.14371
C          C       0.05655   0.15938   0.90485   0.19372
C          C       0.28242   0.14378   0.80929  -0.43020
C          C       0.32910   0.31756   0.41877  -0.43181
C          C       0.45040   0.42989   0.36776   0.19112
C          C       0.48507   0.50788   0.43308  -0.14213
C          C       0.61684   0.59725   0.34201   0.19305
C          C       0.73190   0.69236   0.35734  -0.42897
C          C       0.06259   0.68384   0.58241  -0.43073
C          C       0.24633   0.57201   0.63389   0.19344
C          C       0.42501   0.49361   0.56859  -0.14394
C          C       0.55657   0.40490   0.65933   0.19342
C          C       0.78238   0.30931   0.64379  -0.43025
I          I       0.14442   0.39160   0.11018  -0.55278
I          I       0.64443   0.61013   0.89164  -0.55278
N          N       0.05163   0.74505   0.97031  -0.16149
N          N       0.14509   0.73106   0.07353  -0.15325
N          N       0.76636   0.25632   0.03247  -0.16120
N          N       0.95032   0.27013   0.92933  -0.15239
N          N       0.55158   0.47033   0.24503  -0.16149
N          N       0.64502   0.57356   0.23101  -0.15336
N          N       0.26633   0.53251   0.75630  -0.16161
N          N       0.45028   0.42938   0.77009  -0.15205

