data_crystal

_audit_creation_method 'AiiDA-DDEC plugin'

_cell_length_a         9.28446
_cell_length_b         9.28409
_cell_length_c        13.93550

_cell_angle_alpha     109.27787
_cell_angle_beta     109.29277
_cell_angle_gamma     90.03703

_symmetry_space_group_name_Hall 'P 1'
_symmetry_space_group_name_H-M  'P 1'

loop_
_symmetry_equiv_pos_as_xyz
 'x,y,z'

loop_
_atom_site_label
_atom_site_type_symbol
_atom_site_fract_x
_atom_site_fract_y
_atom_site_fract_z
_atom_site_charge
In         In      0.62481   0.87457   0.24992   1.24454
In         In      0.37519   0.12542   0.75008   1.24447
H          H       0.76973   0.60715   0.06294   0.14202
H          H       0.29364   0.95491   0.06367   0.14200
H          H       0.45581   0.26968   0.56322   0.14163
H          H       0.10813   0.79337   0.56336   0.14182
H          H       0.23026   0.39284   0.93706   0.14211
H          H       0.70635   0.04508   0.93633   0.14196
H          H       0.54419   0.73031   0.43678   0.14168
H          H       0.89186   0.20663   0.43664   0.14176
C          C       0.64958   0.55991   0.03493   0.06688
C          C       0.41124   0.57652   0.05419   0.07575
C          C       0.31180   0.66487   0.11653   0.52391
C          C       0.38554   0.97448   0.03528   0.06803
C          C       0.64285   0.97737   0.05383   0.07498
C          C       0.80439   0.95091   0.11584   0.52318
C          C       0.47512   0.14958   0.53503   0.06839
C          C       0.47673   0.91096   0.55403   0.07410
C          C       0.44947   0.81167   0.61634   0.52512
C          C       0.06039   0.88538   0.53512   0.06857
C          C       0.07624   0.14274   0.55391   0.07351
C          C       0.16453   0.30421   0.61587   0.52280
C          C       0.35042   0.44008   0.96507   0.06685
C          C       0.58875   0.42348   0.94581   0.07552
C          C       0.68819   0.33513   0.88347   0.52382
C          C       0.61446   0.02551   0.96472   0.06785
C          C       0.35714   0.02262   0.94617   0.07496
C          C       0.19560   0.04909   0.88415   0.52318
C          C       0.52487   0.85042   0.46497   0.06860
C          C       0.52327   0.08904   0.44597   0.07424
C          C       0.55052   0.18833   0.38365   0.52515
C          C       0.93961   0.11462   0.46488   0.06857
C          C       0.92376   0.85725   0.44608   0.07356
C          C       0.83547   0.69578   0.38413   0.52263
N          N       0.55821   0.63360   0.08672  -0.19667
N          N       0.52855   0.95226   0.08663  -0.19652
N          N       0.45234   0.05804   0.58664  -0.19713
N          N       0.13374   0.02835   0.58661  -0.19680
N          N       0.44178   0.36639   0.91328  -0.19648
N          N       0.47145   0.04773   0.91337  -0.19657
N          N       0.54765   0.94196   0.41336  -0.19727
N          N       0.86625   0.97164   0.41339  -0.19687
O          O       0.37778   0.79236   0.19497  -0.54354
O          O       0.17672   0.60808   0.08634  -0.38005
O          O       0.81640   0.90000   0.19370  -0.54227
O          O       0.90948   0.97864   0.08591  -0.37929
O          O       0.40049   0.87811   0.69504  -0.54423
O          O       0.47475   0.67615   0.58610  -0.38065
O          O       0.29261   0.31631   0.69382  -0.54176
O          O       0.10739   0.40926   0.58581  -0.37824
O          O       0.62222   0.20764   0.80503  -0.54334
O          O       0.82327   0.39191   0.91366  -0.38021
O          O       0.18360   0.09999   0.80630  -0.54228
O          O       0.09052   0.02135   0.91409  -0.37914
O          O       0.59950   0.12189   0.30496  -0.54435
O          O       0.52524   0.32385   0.41390  -0.38079
O          O       0.70739   0.68369   0.30618  -0.54156
O          O       0.89261   0.59074   0.41419  -0.37810

