data_crystal

_audit_creation_method 'AiiDA-DDEC plugin'

_cell_length_a         9.79785
_cell_length_b        11.97443
_cell_length_c        15.33847

_cell_angle_alpha     96.49010
_cell_angle_beta     98.76925
_cell_angle_gamma     112.99153

_symmetry_space_group_name_Hall 'P 1'
_symmetry_space_group_name_H-M  'P 1'

loop_
_symmetry_equiv_pos_as_xyz
 'x,y,z'

loop_
_atom_site_label
_atom_site_type_symbol
_atom_site_fract_x
_atom_site_fract_y
_atom_site_fract_z
_atom_site_charge
Zn         Zn      0.98936   0.57277   0.29648   0.75003
Zn         Zn      0.89107   0.69174   0.67263   0.75619
Zn         Zn      0.44153   0.60707   0.06884   0.67544
Zn         Zn      0.01064   0.42722   0.70353   0.75001
Zn         Zn      0.10893   0.30826   0.32737   0.75616
Zn         Zn      0.55846   0.39293   0.93117   0.67539
Zn         Zn      0.50000   0.50000   0.50000   0.90514
H          H       0.29857   0.00333   0.81773   0.12992
H          H       0.74158   0.05257   0.95160   0.11870
H          H       0.67268   0.82724   0.90036   0.10457
H          H       0.41558   0.69309   0.80295   0.09348
H          H       0.82021   0.01124   0.66398   0.12771
H          H       0.46134   0.12779   0.59856   0.11147
H          H       0.27008   0.90888   0.57234   0.10404
H          H       0.35736   0.73969   0.58079   0.10478
H          H       0.17295   0.64672   0.14230   0.12990
H          H       0.35641   0.39298   0.20175   0.11150
H          H       0.07982   0.68331   0.51945   0.12598
H          H       0.66112   0.45292   0.34753   0.11405
H          H       0.71930   0.67281   0.23824   0.12624
H          H       0.82227   0.40824   0.09047   0.12797
H          H       0.70143   0.99666   0.18227   0.12995
H          H       0.25842   0.94743   0.04840   0.11876
H          H       0.32731   0.17276   0.09965   0.10453
H          H       0.58442   0.30691   0.19705   0.09353
H          H       0.17979   0.98876   0.33602   0.12781
H          H       0.53866   0.87221   0.40145   0.11149
H          H       0.72991   0.09112   0.42766   0.10396
H          H       0.64264   0.26030   0.41921   0.10476
H          H       0.82705   0.35328   0.85770   0.12994
H          H       0.64358   0.60701   0.79825   0.11160
H          H       0.92018   0.31669   0.48055   0.12602
H          H       0.33888   0.54708   0.65247   0.11406
H          H       0.28069   0.32718   0.76177   0.12612
H          H       0.17773   0.59176   0.90953   0.12803
C          C       0.34193   0.83968   0.80466  -0.04702
C          C       0.38040   0.96488   0.83536  -0.09348
C          C       0.52497   0.04123   0.88739  -0.03974
C          C       0.63021   0.99136   0.91073  -0.06685
C          C       0.59118   0.86583   0.88155  -0.09329
C          C       0.44812   0.79062   0.82790  -0.09387
C          C       0.18964   0.75956   0.74664   0.57139
C          C       0.56765   0.17597   0.91570   0.55947
C          C       0.59368   0.86450   0.62352  -0.06499
C          C       0.69999   0.98847   0.64243  -0.09876
C          C       0.65237   0.08275   0.63120  -0.03490
C          C       0.49663   0.05331   0.60660  -0.07275
C          C       0.39053   0.93067   0.59088  -0.08885
C          C       0.43857   0.83584   0.59689  -0.07120
C          C       0.64855   0.76598   0.63283   0.59734
C          C       0.76682   0.21368   0.64256   0.55152
C          C       0.19406   0.57447   0.17053   0.14616
C          C       0.28969   0.44691   0.20076   0.13090
C          C       0.95903   0.63153   0.49275   0.15761
C          C       0.74689   0.51495   0.40471   0.15543
C          C       0.71797   0.60318   0.18608   0.14561
C          C       0.77234   0.47044   0.11133   0.14849
C          C       0.65807   0.16032   0.19535  -0.04697
C          C       0.61959   0.03511   0.16465  -0.09369
C          C       0.47502   0.95877   0.11262  -0.03973
C          C       0.36978   0.00864   0.08928  -0.06688
C          C       0.40881   0.13417   0.11846  -0.09318
C          C       0.55187   0.20938   0.17210  -0.09391
C          C       0.81035   0.24044   0.25337   0.57143
C          C       0.43235   0.82403   0.08430   0.55958
C          C       0.40631   0.13550   0.37648  -0.06508
C          C       0.30001   0.01153   0.35757  -0.09877
C          C       0.34763   0.91724   0.36880  -0.03488
C          C       0.50336   0.94669   0.39341  -0.07284
C          C       0.60947   0.06932   0.40913  -0.08891
C          C       0.56142   0.16416   0.40312  -0.07118
C          C       0.35145   0.23401   0.36717   0.59758
C          C       0.23318   0.78632   0.35744   0.55148
C          C       0.80593   0.42552   0.82947   0.14632
C          C       0.71030   0.55308   0.79925   0.13085
C          C       0.04096   0.36847   0.50726   0.15776
C          C       0.25311   0.48505   0.59530   0.15543
C          C       0.28202   0.39682   0.81393   0.14562
C          C       0.22766   0.52956   0.88867   0.14861
N          N       0.18641   0.43501   0.25068  -0.18773
N          N       0.12482   0.51655   0.23094  -0.17031
N          N       0.29809   0.53325   0.14942  -0.30506
N          N       0.85275   0.62070   0.54036  -0.18904
N          N       0.71526   0.54573   0.48328  -0.20690
N          N       0.89740   0.56737   0.40755  -0.28645
N          N       0.81564   0.54846   0.19131  -0.29834
N          N       0.65387   0.47620   0.05934  -0.18893
N          N       0.61823   0.56122   0.10742  -0.19177
N          N       0.81359   0.56499   0.74932  -0.18792
N          N       0.87518   0.48345   0.76907  -0.17052
N          N       0.70191   0.46675   0.85059  -0.30482
N          N       0.14725   0.37930   0.45965  -0.18930
N          N       0.28474   0.45426   0.51673  -0.20708
N          N       0.10259   0.43263   0.59245  -0.28609
N          N       0.18435   0.45154   0.80869  -0.29846
N          N       0.34613   0.52380   0.94066  -0.18880
N          N       0.38177   0.43878   0.89258  -0.19186
O          O       0.15823   0.64876   0.71339  -0.60476
O          O       0.09575   0.81085   0.73248  -0.52803
O          O       0.46029   0.21290   0.89364  -0.55139
O          O       0.70034   0.24908   0.95621  -0.56507
O          O       0.55950   0.65226   0.59940  -0.62918
O          O       0.78456   0.80093   0.67673  -0.50854
O          O       0.89947   0.24178   0.69283  -0.57319
O          O       0.73294   0.29001   0.60443  -0.57811
O          O       0.84177   0.35124   0.28661  -0.60473
O          O       0.90424   0.18915   0.26752  -0.52802
O          O       0.53971   0.78710   0.10636  -0.55153
O          O       0.29966   0.75092   0.04379  -0.56501
O          O       0.44050   0.34774   0.40060  -0.62943
O          O       0.21544   0.19907   0.32327  -0.50855
O          O       0.10053   0.75821   0.30717  -0.57321
O          O       0.26706   0.70999   0.39558  -0.57796

