data_crystal

_audit_creation_method 'AiiDA-DDEC plugin'

_cell_length_a         9.52062
_cell_length_b        10.31219
_cell_length_c        16.97961

_cell_angle_alpha     90.98971
_cell_angle_beta     100.47126
_cell_angle_gamma     93.13485

_symmetry_space_group_name_Hall 'P 1'
_symmetry_space_group_name_H-M  'P 1'

loop_
_symmetry_equiv_pos_as_xyz
 'x,y,z'

loop_
_atom_site_label
_atom_site_type_symbol
_atom_site_fract_x
_atom_site_fract_y
_atom_site_fract_z
_atom_site_charge
Co         Co      0.80143   0.17616   0.70774   1.00113
Co         Co      0.81767   0.37068   0.86089   0.91565
Co         Co      0.19845   0.82392   0.29220   1.00107
Co         Co      0.18228   0.62936   0.13904   0.91560
H          H       0.77081   0.72794   0.74320   0.12332
H          H       0.67258   0.87151   0.50486   0.13369
H          H       0.69532   0.45787   0.54163   0.14869
H          H       0.58707   0.80353   0.38505   0.11183
H          H       0.61245   0.67439   0.31755   0.09860
H          H       0.03817   0.00735   0.40974   0.11170
H          H       0.89858   0.63270   0.31634   0.12934
H          H       0.34785   0.34825   0.84799   0.12922
H          H       0.46539   0.96388   0.79151   0.15250
H          H       0.03282   0.02758   0.81859   0.13594
H          H       0.08463   0.68647   0.79128   0.11153
H          H       0.00100   0.83840   0.79269   0.10084
H          H       0.09821   0.89768   0.07476   0.12451
H          H       0.15001   0.57435   0.92867   0.14412
H          H       0.22933   0.27230   0.25680   0.12388
H          H       0.32745   0.12843   0.49507   0.13398
H          H       0.30482   0.54213   0.45854   0.14824
H          H       0.41295   0.19637   0.61497   0.11184
H          H       0.38759   0.32548   0.68248   0.09815
H          H       0.96183   0.99268   0.59023   0.11160
H          H       0.10144   0.36736   0.68359   0.12933
H          H       0.65219   0.65198   0.15199   0.12936
H          H       0.53420   0.03621   0.20844   0.15249
H          H       0.96690   0.97292   0.18138   0.13525
H          H       0.91471   0.31382   0.20875   0.11083
H          H      -0.00169   0.16189   0.20737   0.10089
H          H       0.90180   0.10278   0.92528   0.12399
H          H       0.84983   0.42601   0.07140   0.14358
C          C       0.73410   0.58126   0.64816  -0.02766
C          C       0.74433   0.70884   0.67898  -0.13701
C          C       0.72116   0.81162   0.62657  -0.00817
C          C       0.68686   0.78831   0.54330  -0.22128
C          C       0.67935   0.66050   0.51337   0.24519
C          C       0.70145   0.55695   0.56532  -0.19339
C          C       0.76504   0.47056   0.70278   0.59303
C          C       0.74590   0.94758   0.65901   0.54076
C          C       0.65364   0.72313   0.37557   0.07722
C          C       0.97196   0.91944   0.39154   0.15263
C          C       0.90539   0.72866   0.34415   0.10519
C          C       0.17873   0.19571   0.83318  -0.02481
C          C       0.31925   0.24534   0.83600  -0.14536
C          C       0.42056   0.16110   0.81862  -0.02081
C          C       0.38542   0.02771   0.80531  -0.18455
C          C       0.24763   0.97787   0.80986   0.25346
C          C       0.14270   0.06229   0.82022  -0.22318
C          C       0.06309   0.28241   0.84186   0.56392
C          C       0.56567   0.21367   0.80934   0.57596
C          C       0.09471   0.78486   0.81770   0.06370
C          C       0.10402   0.83699   0.02292   0.14700
C          C       0.13347   0.67069   0.95094   0.09095
C          C       0.26611   0.41885   0.35183  -0.02776
C          C       0.25586   0.29128   0.32103  -0.13790
C          C       0.27889   0.18848   0.37342  -0.00793
C          C       0.31317   0.21171   0.45670  -0.22143
C          C       0.32070   0.33952   0.48663   0.24543
C          C       0.29874   0.44312   0.43470  -0.19302
C          C       0.23498   0.52947   0.29718   0.59279
C          C       0.25413   0.05254   0.34097   0.54073
C          C       0.34640   0.27681   0.62443   0.07750
C          C       0.02803   0.08058   0.60843   0.15324
C          C       0.09462   0.27137   0.65579   0.10498
C          C       0.82122   0.80454   0.16677  -0.02455
C          C       0.68071   0.75488   0.16398  -0.14576
C          C       0.57926   0.83900   0.18133  -0.02097
C          C       0.61425   0.97240   0.19467  -0.18400
C          C       0.75199   0.02230   0.19010   0.25232
C          C       0.85708   0.93800   0.17976  -0.22203
C          C       0.93682   0.71773   0.15811   0.56345
C          C       0.43423   0.78631   0.19066   0.57624
C          C       0.90463   0.21544   0.18232   0.06510
C          C       0.89586   0.16340   0.97713   0.14790
C          C       0.86630   0.32966   0.04909   0.09108
N          N       0.79779   0.77988   0.37449   0.09326
N          N       0.83968   0.90259   0.40528  -0.24704
N          N       0.01739   0.81498   0.35341  -0.34588
N          N       0.09997   0.77319   0.90378   0.13603
N          N       0.08110   0.87974   0.94915  -0.24228
N          N       0.13526   0.70766   0.02720  -0.34329
N          N       0.20224   0.22010   0.62549   0.09308
N          N       0.16032   0.09740   0.59470  -0.24689
N          N       0.98261   0.18508   0.64654  -0.34619
N          N       0.89953   0.22711   0.09625   0.13522
N          N       0.91850   0.12058   0.05089  -0.24164
N          N       0.86472   0.29274   0.97285  -0.34354
O          O       0.75087   0.35687   0.67092  -0.57383
O          O       0.80618   0.50007   0.77786  -0.56983
O          O       0.82004   0.96891   0.72954  -0.55583
O          O       0.70197   0.04289   0.61567  -0.52765
O          O       0.65298   0.62429   0.43255  -0.22023
O          O       0.93152   0.23392   0.81759  -0.61738
O          O       0.08376   0.39505   0.87275  -0.54643
O          O       0.61185   0.32296   0.84538  -0.55211
O          O       0.63091   0.14752   0.76559  -0.56327
O          O       0.22477   0.84376   0.80119  -0.21918
O          O       0.24931   0.64317   0.32900  -0.57398
O          O       0.19365   0.49997   0.22208  -0.56953
O          O       0.18000   0.03116   0.27043  -0.55594
O          O       0.29798   0.95727   0.38434  -0.52751
O          O       0.34703   0.37567   0.56746  -0.22067
O          O       0.06840   0.76619   0.18238  -0.61785
O          O       0.91611   0.60506   0.12730  -0.54546
O          O       0.38809   0.67702   0.15459  -0.55194
O          O       0.36895   0.85240   0.23441  -0.56334
O          O       0.77452   0.15645   0.19875  -0.21976

