data_crystal

_audit_creation_method 'AiiDA-DDEC plugin'

_cell_length_a        11.53519
_cell_length_b        12.47751
_cell_length_c        14.75320

_cell_angle_alpha     90.00000
_cell_angle_beta     90.00000
_cell_angle_gamma     90.00092

_symmetry_space_group_name_Hall 'P 1'
_symmetry_space_group_name_H-M  'P 1'

loop_
_symmetry_equiv_pos_as_xyz
 'x,y,z'

loop_
_atom_site_label
_atom_site_type_symbol
_atom_site_fract_x
_atom_site_fract_y
_atom_site_fract_z
_atom_site_charge
Zn         Zn      0.50000  -0.00000   0.75010   0.77829
Zn         Zn      0.50000  -0.00001   0.24993   0.77844
H          H       0.68687   0.71894   0.85367   0.11442
H          H       0.83251   0.57575   0.85337   0.11266
H          H       0.70023   0.84019   0.71348   0.09613
H          H       0.91521   0.83156   0.71350   0.12478
H          H       0.31312   0.28107   0.85367   0.11441
H          H       0.16749   0.42425   0.85337   0.11278
H          H       0.29977   0.15981   0.71348   0.09610
H          H       0.08479   0.16844   0.71350   0.12483
H          H       0.31313   0.71894   0.64633   0.11433
H          H       0.16749   0.57575   0.64663   0.11264
H          H       0.29976   0.84019   0.78653   0.09601
H          H       0.08478   0.83156   0.78649   0.12473
H          H       0.68687   0.28106   0.64633   0.11436
H          H       0.83250   0.42425   0.64663   0.11266
H          H       0.70024   0.15981   0.78653   0.09618
H          H       0.91521   0.16844   0.78649   0.12478
H          H       0.31312   0.28107   0.14633   0.11440
H          H       0.16749   0.42425   0.14663   0.11277
H          H       0.29977   0.15981   0.28652   0.09609
H          H       0.08479   0.16844   0.28650   0.12483
H          H       0.68687   0.71894   0.14633   0.11441
H          H       0.83251   0.57575   0.14663   0.11265
H          H       0.70023   0.84019   0.28652   0.09610
H          H       0.91521   0.83156   0.28650   0.12480
H          H       0.68687   0.28106   0.35367   0.11438
H          H       0.83250   0.42425   0.35337   0.11265
H          H       0.70024   0.15981   0.21347   0.09619
H          H       0.91521   0.16844   0.21351   0.12479
H          H       0.31313   0.71894   0.35367   0.11434
H          H       0.16749   0.57575   0.35337   0.11267
H          H       0.29976   0.84019   0.21347   0.09602
H          H       0.08478   0.83156   0.21350   0.12474
C          C       0.53534   0.84785   0.91981   0.30386
C          C       0.71857   0.68769   0.91788  -0.14255
C          C       0.80085   0.60655   0.91780  -0.12015
C          C       0.92101   0.40718   0.91952   0.23692
C          C       0.75182   0.91041   0.73053   0.08949
C          C       0.87238   0.90665   0.73043  -0.16979
C          C       0.46466   0.15215   0.91981   0.30395
C          C       0.28143   0.31232   0.91788  -0.14275
C          C       0.19914   0.39345   0.91780  -0.12005
C          C       0.07899   0.59282   0.91952   0.23686
C          C       0.24817   0.08960   0.73053   0.08957
C          C       0.12762   0.09335   0.73043  -0.16973
C          C       0.46466   0.84787   0.58020   0.30406
C          C       0.28143   0.68769   0.58212  -0.14256
C          C       0.19915   0.60655   0.58220  -0.12005
C          C       0.07899   0.40717   0.58049   0.23687
C          C       0.24816   0.91041   0.76948   0.08951
C          C       0.12761   0.90665   0.76956  -0.16961
C          C       0.53534   0.15213   0.58020   0.30423
C          C       0.71856   0.31231   0.58212  -0.14268
C          C       0.80085   0.39345   0.58220  -0.12019
C          C       0.92101   0.59282   0.58048   0.23698
C          C       0.75183   0.08959   0.76948   0.08941
C          C       0.87239   0.09335   0.76956  -0.16969
C          C       0.46466   0.15215   0.08019   0.30385
C          C       0.28143   0.31232   0.08212  -0.14277
C          C       0.19914   0.39345   0.08220  -0.12005
C          C       0.07899   0.59282   0.08048   0.23689
C          C       0.24817   0.08960   0.26947   0.08959
C          C       0.12762   0.09335   0.26957  -0.16974
C          C       0.53534   0.84785   0.08019   0.30395
C          C       0.71857   0.68769   0.08212  -0.14261
C          C       0.80085   0.60655   0.08220  -0.12006
C          C       0.92100   0.40718   0.08049   0.23695
C          C       0.75182   0.91041   0.26947   0.08966
C          C       0.87238   0.90665   0.26957  -0.16988
C          C       0.53534   0.15213   0.41980   0.30407
C          C       0.71856   0.31231   0.41788  -0.14272
C          C       0.80085   0.39345   0.41780  -0.12014
C          C       0.92100   0.59282   0.41952   0.23706
C          C       0.75183   0.08959   0.23052   0.08945
C          C       0.87239   0.09335   0.23043  -0.16978
C          C       0.46466   0.84787   0.41980   0.30413
C          C       0.28143   0.68769   0.41788  -0.14253
C          C       0.19915   0.60655   0.41780  -0.12012
C          C       0.07899   0.40718   0.41951   0.23688
C          C       0.24816   0.91041   0.23052   0.08949
C          C       0.12761   0.90665   0.23043  -0.16961
C          C       0.93578   0.00000   0.75000   0.10424
C          C       0.06422   0.00000   0.75000   0.10443
C          C       0.06422   0.00000   0.25000   0.10443
C          C       0.93578   0.00000   0.25000   0.10436
C          C       0.58259   0.80924   0.00000  -0.21389
C          C       0.67396   0.72857   0.00000   0.11783
C          C       0.84176   0.56425   0.00000  -0.01551
C          C       0.93246   0.47565  -0.00000   0.03832
C          C       0.41741   0.19076   0.00000  -0.21368
C          C       0.32604   0.27143   0.00000   0.11793
C          C       0.15823   0.43575   0.00000  -0.01563
C          C       0.06754   0.52435  -0.00000   0.03835
C          C       0.41742   0.80926   0.50000  -0.21403
C          C       0.32605   0.72858   0.50000   0.11779
C          C       0.15824   0.56425   0.50000  -0.01568
C          C       0.06754   0.47565   0.50000   0.03843
C          C       0.58258   0.19074   0.50000  -0.21432
C          C       0.67395   0.27142   0.50000   0.11813
C          C       0.84176   0.43575   0.50000  -0.01544
C          C       0.93245   0.52435   0.50000   0.03816
N          N       0.49499   0.87785   0.85107  -0.43659
N          N       0.90981   0.35504   0.85455  -0.30640
N          N       0.50501   0.12215   0.85107  -0.43683
N          N       0.09019   0.64496   0.85455  -0.30636
N          N       0.50497   0.87787   0.64896  -0.43699
N          N       0.09019   0.35505   0.64544  -0.30639
N          N       0.49502   0.12212   0.64896  -0.43694
N          N       0.90981   0.64496   0.64545  -0.30643
N          N       0.50500   0.12214   0.14893  -0.43676
N          N       0.09019   0.64496   0.14545  -0.30636
N          N       0.49499   0.87785   0.14893  -0.43666
N          N       0.90981   0.35504   0.14544  -0.30637
N          N       0.49502   0.12213   0.35105  -0.43689
N          N       0.90981   0.64496   0.35455  -0.30646
N          N       0.50498   0.87787   0.35105  -0.43709
N          N       0.09019   0.35505   0.35456  -0.30641
N          N       0.69151  -0.00000   0.75001  -0.22544
N          N       0.30849   0.00000   0.75001  -0.22572
N          N       0.30849   0.00000   0.24999  -0.22576
N          N       0.69151  -0.00000   0.24999  -0.22559

