data_crystal

_audit_creation_method 'AiiDA-DDEC plugin'

_cell_length_a        12.02841
_cell_length_b        12.91897
_cell_length_c        14.14555

_cell_angle_alpha     103.06734
_cell_angle_beta     101.60896
_cell_angle_gamma     93.12199

_symmetry_space_group_name_Hall 'P 1'
_symmetry_space_group_name_H-M  'P 1'

loop_
_symmetry_equiv_pos_as_xyz
 'x,y,z'

loop_
_atom_site_label
_atom_site_type_symbol
_atom_site_fract_x
_atom_site_fract_y
_atom_site_fract_z
_atom_site_charge
Mn         Mn      0.89765   0.86758   0.74862   1.04942
Mn         Mn      0.08430   0.76103   0.60573   1.02674
Mn         Mn      0.10172   0.13243   0.25138   1.04933
Mn         Mn      0.91572   0.23913   0.39434   1.02622
Mn         Mn     -0.00134   0.00021   0.00044   1.17534
Mn         Mn     -0.00048   0.50035   0.50003   1.02622
H          H       0.53287   0.93018   0.75474   0.12282
H          H       0.74425   0.13144   0.02034   0.11258
H          H       0.57514   0.21444   0.06851   0.11341
H          H       0.36441   0.22138   0.03400   0.11439
H          H       0.17183   0.13997   0.93677   0.10601
H          H       0.32084   0.92444   0.72986   0.12207
H          H       0.97478   0.71212   0.10581   0.12580
H          H       0.81720   0.58865   0.79712   0.10631
H          H       0.74655   0.41903   0.83008   0.11748
H          H       0.73730   0.30578   0.94842   0.11325
H          H       0.79398   0.27919   0.12000   0.10992
H          H       0.96784   0.59569   0.22605   0.12741
H          H       0.64912   0.75771   0.57709   0.11860
H          H       0.79638   0.56496   0.35375   0.11151
H          H       0.60710   0.46602   0.26946   0.11332
H          H       0.40222   0.42231   0.27428   0.11181
H          H       0.23787   0.46385   0.35452   0.11387
H          H       0.43951   0.73385   0.56495   0.11893
H          H       0.46587   0.06993   0.24488   0.12255
H          H       0.25493   0.86845   0.97905   0.11306
H          H       0.42436   0.78559   0.93143   0.11327
H          H       0.63505   0.77865   0.96629   0.11458
H          H       0.82742   0.86008   0.06376   0.10664
H          H       0.67811   0.07581   0.27022   0.12216
H          H       0.02429   0.28780   0.89380   0.12589
H          H       0.18249   0.41069   0.20246   0.10646
H          H       0.25335   0.58028   0.16971   0.11764
H          H       0.26249   0.69384   0.05138   0.11341
H          H       0.20567   0.72055   0.87988   0.10999
H          H       0.03175   0.40407   0.77375   0.12734
H          H       0.35073   0.24233   0.42297   0.11880
H          H       0.20346   0.43529   0.64622   0.11126
H          H       0.39282   0.53402   0.73063   0.11396
H          H       0.59778   0.57769   0.72575   0.11169
H          H       0.76201   0.53597   0.64538   0.11443
H          H       0.56025   0.26599   0.43513   0.11862
C          C       0.54087   0.99159   0.82325  -0.13584
C          C       0.64774   0.02738   0.88437  -0.04943
C          C       0.65909   0.10719   0.97408  -0.09257
C          C       0.56535   0.15195   0.00049  -0.13841
C          C       0.35501   0.15567   0.96843  -0.13324
C          C       0.24798   0.11076   0.91486  -0.08944
C          C       0.23550   0.02452   0.82978  -0.05269
C          C       0.33099   0.98886   0.79653  -0.12901
C          C       0.44205   0.03196   0.85157   0.06803
C          C       0.45432   0.11525   0.94099   0.08522
C          C       0.75164   0.98163   0.86065   0.59392
C          C       0.12166   0.96768   0.77978   0.60717
C          C       0.92531   0.64759   0.04635  -0.12369
C          C       0.89887   0.66052   0.94989  -0.05399
C          C       0.83491   0.57637   0.87177  -0.10066
C          C       0.79673   0.48239   0.89039  -0.13997
C          C       0.78776   0.36903   0.00860  -0.13918
C          C       0.81807   0.35399   0.10304  -0.10096
C          C       0.88355   0.43599   0.18246  -0.04771
C          C       0.91767   0.53311   0.16502  -0.12705
C          C       0.88941   0.55048   0.06783   0.06177
C          C       0.82328   0.46655   0.98807   0.08732
C          C       0.93279   0.76131   0.92419   0.59758
C          C       0.91402   0.41241   0.28168   0.57690
C          C       0.63951   0.69390   0.51004  -0.12660
C          C       0.73534   0.66387   0.47366  -0.05772
C          C       0.72160   0.58335   0.38364  -0.08119
C          C       0.61623   0.52891   0.33714  -0.14531
C          C       0.41105   0.48989   0.33822  -0.14660
C          C       0.31949   0.51282   0.38170  -0.09608
C          C       0.32872   0.60301   0.46276  -0.04195
C          C       0.43246   0.66543   0.50217  -0.13520
C          C       0.53012   0.63922   0.46348   0.06544
C          C       0.51851   0.55161   0.37753   0.08343
C          C       0.84914   0.71103   0.53103   0.58001
C          C       0.22709   0.62958   0.50432   0.58127
C          C       0.45789   0.00857   0.17635  -0.13549
C          C       0.35101   0.97283   0.11504  -0.05001
C          C       0.33999   0.89290   0.02546  -0.09171
C          C       0.43391   0.84815  -0.00064  -0.13988
C          C       0.64426   0.84437   0.03183  -0.13423
C          C       0.75120   0.88930   0.08553  -0.08952
C          C       0.76354   0.97561   0.17054  -0.05238
C          C       0.66797   0.01131   0.20361  -0.12862
C          C       0.55691   0.96820   0.14838   0.06677
C          C       0.54486   0.88484   0.05904   0.08641
C          C       0.24698   0.01833   0.13899   0.59309
C          C       0.87741   0.03243   0.22037   0.60687
C          C       0.07392   0.35220   0.95332  -0.12418
C          C       0.10010   0.33920   0.04974  -0.05269
C          C       0.16457   0.42312   0.12786  -0.10029
C          C       0.20303   0.51705   0.10933  -0.14081
C          C       0.21205   0.63059   0.99119  -0.13902
C          C       0.18163   0.64570   0.89679  -0.10135
C          C       0.11596   0.56381   0.81740  -0.04888
C          C       0.08200   0.46662   0.83475  -0.12628
C          C       0.11031   0.44919   0.93192   0.06175
C          C       0.17651   0.53305   0.01170   0.08692
C          C       0.06533   0.23870   0.07560   0.59798
C          C       0.08516   0.58761   0.71832   0.57905
C          C       0.36033   0.30613   0.49002  -0.12671
C          C       0.26452   0.33629   0.52637  -0.05838
C          C       0.27827   0.41681   0.61639  -0.08002
C          C       0.38368   0.47113   0.66294  -0.14586
C          C       0.58886   0.51009   0.66181  -0.14563
C          C       0.68036   0.48707   0.61828  -0.09702
C          C       0.67107   0.39682   0.53727  -0.04156
C          C       0.56734   0.33443   0.49790  -0.13479
C          C       0.46973   0.36075   0.53661   0.06526
C          C       0.48139   0.44838   0.62255   0.08308
C          C       0.15068   0.28932   0.46895   0.58184
C          C       0.77265   0.37033   0.49570   0.58071
O          O       0.83958  -0.00052   0.93281  -0.57926
O          O       0.74973   0.92735   0.77233  -0.55403
O          O       0.04033   0.97383   0.82796  -0.57768
O          O       0.10548   0.91189   0.69023  -0.58079
O          O       0.97873   0.84265   0.99483  -0.55212
O          O       0.91115   0.76037   0.83176  -0.57076
O          O       0.88947   0.31579   0.28543  -0.57871
O          O       0.96114   0.48877   0.35677  -0.51846
O          O       0.94051   0.67108   0.50885  -0.55750
O          O       0.86045   0.79256   0.60524  -0.59700
O          O       0.15103   0.55231   0.49460  -0.53333
O          O       0.22154   0.72766   0.54735  -0.56034
O          O       0.15828   0.00037   0.06743  -0.58057
O          O       0.24976   0.07271   0.22748  -0.55335
O          O       0.95834   0.02640   0.17176  -0.57777
O          O       0.89429   0.08803   0.31002  -0.58014
O          O       0.01696   0.15782   0.00537  -0.55321
O          O       0.08872   0.23944   0.16797  -0.57116
O          O       0.11048   0.68403   0.71448  -0.57936
O          O       0.03724   0.51153   0.64332  -0.51866
O          O       0.05941   0.32946   0.49105  -0.55781
O          O       0.13937   0.20765   0.39483  -0.59770
O          O       0.84846   0.44778   0.50539  -0.53291
O          O       0.77843   0.27230   0.45268  -0.55976

