data_crystal

_audit_creation_method 'AiiDA-DDEC plugin'

_cell_length_a         8.58916
_cell_length_b        13.37359
_cell_length_c        14.25128

_cell_angle_alpha     61.76609
_cell_angle_beta     84.76724
_cell_angle_gamma     78.24153

_symmetry_space_group_name_Hall 'P 1'
_symmetry_space_group_name_H-M  'P 1'

loop_
_symmetry_equiv_pos_as_xyz
 'x,y,z'

loop_
_atom_site_label
_atom_site_type_symbol
_atom_site_fract_x
_atom_site_fract_y
_atom_site_fract_z
_atom_site_charge
Zn         Zn      0.52092   0.20718   0.17479   0.74572
Zn         Zn      0.02720   0.37945   0.82432   0.74519
H          H       0.02265   0.27894   0.24920   0.09965
H          H       0.76498   0.30493   0.33686   0.10419
H          H       0.01797   0.25389   0.60900   0.12013
H          H       0.27366   0.22712   0.51957   0.10744
H          H       0.61519   0.30757   0.48136   0.10908
H          H       0.79416   0.31072   0.65835   0.12456
H          H       0.63139   0.27780   0.81564   0.12998
H          H       0.36701   0.30999   0.89239   0.09337
H          H       0.14012   0.43750   0.60232   0.10659
H          H       0.39579   0.40746   0.51360   0.12526
H          H       0.40697   0.11302   0.91820   0.10476
H          H       0.30530   0.99484   0.85419   0.11677
H          H       0.29470   0.72581   0.17838   0.10890
H          H       0.39448   0.84564   0.24063   0.11304
H          H       0.21172   0.82954   0.88473   0.10382
H          H       0.24869   0.62479   0.11120   0.10842
H          H       0.10886   0.74312   0.82222   0.12415
H          H       0.03377   0.61441   0.75996   0.09602
H          H       0.13185   0.32773   0.05599   0.10451
H          H       0.20708   0.44325   0.13130   0.12404
H          H       0.52762   0.52902   0.75108   0.09964
H          H       0.26821   0.64333   0.66328   0.10271
H          H       0.51578   0.86511   0.38972   0.12112
H          H       0.77373   0.74767   0.47872   0.10750
H          H       0.11598   0.78917   0.51834   0.10839
H          H       0.29090   0.96966   0.33900   0.12554
H          H       0.12575   0.09407   0.18168   0.13038
H          H       0.85994   0.20388   0.10465   0.09413
H          H       0.63847   0.04112   0.39545   0.10472
H          H       0.89585   0.92208   0.48466   0.12635
H          H       0.90743   0.03151   0.08004   0.10557
H          H       0.80343   0.84968   0.14376   0.11613
H          H       0.79340   0.90604   0.82003   0.10884
H          H       0.89764   0.08707   0.75818   0.11331
H          H       0.70978   0.71590   0.11311   0.10344
H          H       0.75388   0.73582   0.88839   0.10810
H          H       0.60967   0.56728   0.17569   0.12448
H          H       0.53016   0.37721   0.23812   0.09550
H          H       0.62969   0.38522   0.94423   0.10479
H          H       0.71151   0.57469   0.86933   0.12483
C          C       0.32084   0.23537   0.32818   0.55010
C          C       0.16414   0.25214   0.37892  -0.04011
C          C       0.02021   0.27438   0.32741  -0.10236
C          C       0.87616   0.28935   0.37655  -0.14163
C          C       0.87155   0.28429   0.47785   0.10778
C          C       0.01723   0.26100   0.52971  -0.14048
C          C       0.16063   0.24537   0.48056  -0.10054
C          C       0.71725   0.30449   0.52385  -0.10737
C          C       0.69316   0.31783   0.61293  -0.15344
C          C       0.53794   0.33793   0.65743   0.15902
C          C       0.52571   0.31296   0.76535  -0.16817
C          C       0.37805   0.33193   0.80838   0.07599
C          C       0.25196   0.40075   0.64632   0.09905
C          C       0.39505   0.38361   0.59797  -0.18136
C          C       0.46113   0.05769   0.12534   0.54461
C          C       0.40763   0.98679   0.08337  -0.03025
C          C       0.38255   0.02816   0.97442  -0.08302
C          C       0.32641   0.96128   0.93891  -0.12810
C          C       0.29452   0.85079   0.01108   0.10074
C          C       0.32053   0.80989   0.12067  -0.13454
C          C       0.37605   0.87670   0.15612  -0.09996
C          C       0.23797   0.78365   0.96989  -0.09328
C          C       0.21915   0.67199   0.02663  -0.15565
C          C       0.16708   0.60513   0.98355   0.15533
C          C       0.11566   0.65182   0.87733  -0.17861
C          C       0.07309   0.58111   0.84176   0.06580
C          C       0.12595   0.42033   0.00687   0.09198
C          C       0.16880   0.48618   0.04853  -0.17931
C          C       0.82355   0.56148   0.67158   0.55103
C          C       0.66674   0.63141   0.62034  -0.03982
C          C       0.52360   0.60279   0.67242  -0.10412
C          C       0.37872   0.66723   0.62327  -0.13951
C          C       0.37230   0.76347   0.52135   0.10697
C          C       0.51702   0.79234   0.46924  -0.14062
C          C       0.66148   0.72694   0.51830  -0.10103
C          C       0.21689   0.82910   0.47516  -0.10599
C          C       0.19082   0.93138   0.38501  -0.15627
C          C       0.03491   0.99593   0.34027   0.16184
C          C       0.02088   0.07904   0.23198  -0.16947
C          C       0.87250   0.14148   0.18883   0.07666
C          C       0.74947   0.04817   0.35143   0.10135
C          C       0.89331   0.98233   0.39996  -0.18404
C          C       0.96490   0.18205   0.87365   0.54471
C          C       0.90984   0.06996   0.91530  -0.02988
C          C       0.88320   0.00287   0.02404  -0.08461
C          C       0.82582   0.90094   0.05935  -0.12728
C          C       0.79422   0.86311   0.98714   0.10095
C          C       0.82063   0.93176   0.87768  -0.13232
C          C       0.87800   0.03333   0.84246  -0.10082
C          C       0.73793   0.75473   0.02845  -0.09386
C          C       0.72184   0.69916   0.97231  -0.15602
C          C       0.66887   0.58949   0.01561   0.15528
C          C       0.61571   0.53089   0.12119  -0.18003
C          C       0.57053   0.42532   0.15672   0.06907
C          C       0.62467   0.42875   0.99282   0.09213
C          C       0.67087   0.53532   0.95134  -0.17858
N          N       0.24223   0.37512   0.75043  -0.23882
N          N       0.07867   0.46621   0.90467  -0.24336
N          N       0.73792   0.12689   0.24708  -0.24045
N          N       0.57478   0.37351   0.09423  -0.24572
O          O       0.31280   0.23346   0.23803  -0.55750
O          O       0.44798   0.22599   0.37097  -0.56390
O          O       0.47646   0.16325   0.06028  -0.55061
O          O       0.48529   0.01446   0.22416  -0.54682
O          O       0.81524   0.46980   0.76257  -0.56017
O          O       0.95149   0.59214   0.62848  -0.56612
O          O       0.97806   0.22266   0.93858  -0.54899
O          O       0.99248   0.23714   0.77527  -0.54649

