data_crystal

_audit_creation_method 'AiiDA-DDEC plugin'

_cell_length_a        10.31200
_cell_length_b        10.31659
_cell_length_c        18.65218

_cell_angle_alpha     100.80949
_cell_angle_beta     100.82586
_cell_angle_gamma     95.87682

_symmetry_space_group_name_Hall 'P 1'
_symmetry_space_group_name_H-M  'P 1'

loop_
_symmetry_equiv_pos_as_xyz
 'x,y,z'

loop_
_atom_site_label
_atom_site_type_symbol
_atom_site_fract_x
_atom_site_fract_y
_atom_site_fract_z
_atom_site_charge
Ni         Ni      0.00853   0.25158   0.78407   0.91168
Ni         Ni      0.74787   0.99110   0.71532   0.91187
Ni         Ni      0.99073   0.74993   0.21946   0.92973
Ni         Ni      0.24981   0.00931   0.28203   0.92956
H          H       0.22509   0.49777   0.14947   0.12356
H          H       0.18920   0.34837   0.02366   0.10810
H          H       0.18514   0.07050   0.13247   0.09733
H          H       0.12508   0.04778   0.01724   0.11845
H          H       0.26836   0.52278   0.28703   0.13030
H          H       0.27260   0.31555   0.34171   0.10416
H          H       0.91437   0.57316   0.07290   0.09503
H          H       0.88500   0.40341   0.96362   0.09999
H          H       0.72606   0.13436   0.96183   0.13333
H          H       0.94761   0.49691   0.28398   0.10641
H          H       0.88909   0.24972   0.23265   0.11933
H          H       0.83788   0.16343   0.09556   0.12350
H          H       0.50039   0.77518   0.34945   0.12349
H          H       0.64879   0.80997   0.47609   0.10870
H          H       0.92843   0.81291   0.36833   0.09690
H          H       0.94937   0.87505   0.48204   0.11976
H          H       0.47735   0.73106   0.21198   0.12925
H          H       0.68580   0.72608   0.15842   0.10544
H          H       0.42860   0.08650   0.42796   0.09749
H          H       0.59777   0.11624   0.53602   0.09867
H          H       0.86742   0.27522   0.53901   0.13305
H          H       0.50125   0.05177   0.21606   0.10596
H          H       0.74880   0.11048   0.26626   0.12081
H          H       0.83721   0.16273   0.40334   0.12461
H          H       0.77376   0.50489   0.85140   0.12465
H          H       0.81258   0.65163   0.97659   0.10955
H          H       0.82288   0.93283   0.86852   0.10105
H          H       0.88184   0.95227   0.98470   0.12024
H          H       0.73117   0.47969   0.71387   0.13084
H          H       0.73044   0.68758   0.65936   0.10619
H          H       0.08281   0.42340   0.92893   0.10031
H          H       0.11090   0.59493   0.03691   0.09990
H          H       0.27493   0.86110   0.03836   0.13422
H          H       0.05302   0.49438   0.71677   0.10985
H          H       0.11270   0.74207   0.76667   0.12458
H          H       0.16351   0.83139   0.90329   0.12876
H          H       0.49524   0.22666   0.64909   0.12473
H          H       0.34736   0.18753   0.52353   0.10916
H          H       0.06714   0.17745   0.63206   0.10043
H          H       0.04675   0.11780   0.51551   0.12015
H          H       0.52061   0.26916   0.78655   0.13125
H          H       0.31273   0.26972   0.84119   0.10728
H          H       0.57699   0.91740   0.57120   0.10127
H          H       0.40388   0.88899   0.46327   0.10158
H          H       0.13986   0.72313   0.46361   0.13440
H          H       0.50679   0.94735   0.78357   0.11050
H          H       0.25893   0.88816   0.73398   0.12542
H          H       0.16927   0.83697   0.59707   0.12761
H          H       0.99349   0.00642   0.74852   0.39079
H          H       0.00144  -0.00109   0.25067   0.39115
C          C       0.11586   0.12260   0.91489   0.60125
C          C       0.77248   0.19606   0.86112   0.61771
C          C       0.22760   0.40927   0.17355  -0.08337
C          C       0.20249   0.28066   0.12792   0.05552
C          C       0.17655   0.25920   0.04652  -0.08383
C          C       0.20370   0.17259   0.16385   0.06528
C          C       0.13957   0.14053   0.99802  -0.23221
C          C       0.25180   0.42394   0.25106  -0.12555
C          C       0.25334   0.31098   0.28185   0.07301
C          C       0.86624   0.36196   0.07107   0.05287
C          C       0.90520   0.49689   0.10541   0.03869
C          C       0.84289   0.32778   0.98989  -0.07308
C          C       0.77627   0.21543   0.94282  -0.24191
C          C       0.92253   0.45497   0.22425   0.08167
C          C       0.88846   0.31832   0.19491  -0.12674
C          C       0.85867   0.27054   0.11789  -0.06667
C          C       0.87681   0.88644   0.58489   0.60007
C          C       0.80268   0.22808   0.63886   0.61623
C          C       0.58945   0.77206   0.32586  -0.08344
C          C       0.71765   0.79666   0.37201   0.05624
C          C       0.73822   0.82281   0.45342  -0.08409
C          C       0.82651   0.79486   0.33661   0.06378
C          C       0.85706   0.86044   0.50173  -0.23256
C          C       0.57586   0.74755   0.24840  -0.12211
C          C       0.68949   0.74550   0.21819   0.07190
C          C       0.63929   0.13439   0.42868   0.05433
C          C       0.50412   0.09528   0.39493   0.03498
C          C       0.67361   0.15818   0.50981  -0.07329
C          C       0.78541   0.22504   0.55730  -0.24021
C          C       0.54416   0.07715   0.27569   0.08352
C          C       0.68102   0.11134   0.30446  -0.12813
C          C       0.72994   0.14167   0.38141  -0.06747
C          C       0.89413   0.87555   0.08655   0.59641
C          C       0.22400   0.80335   0.13913   0.61896
C          C       0.77327   0.59345   0.82733  -0.08411
C          C       0.80065   0.72200   0.87313   0.05429
C          C       0.82630   0.74163   0.95451  -0.08003
C          C       0.80193   0.83048   0.83735   0.06396
C          C       0.86523   0.85942   0.00355  -0.23227
C          C       0.74934   0.57866   0.74984  -0.12025
C          C       0.74956   0.69180   0.71919   0.06899
C          C       0.13297   0.63384   0.92943   0.05848
C          C       0.09328   0.49868   0.89594   0.03137
C          C       0.15530   0.66927   0.01064  -0.07606
C          C       0.22313   0.78121   0.05755  -0.23519
C          C       0.07814   0.53770   0.77632   0.07716
C          C       0.11266   0.67445   0.80499  -0.12228
C          C       0.14211   0.72387   0.88192  -0.06879
C          C       0.12471   0.10599   0.41391   0.59754
C          C       0.19631   0.77410   0.36217   0.62072
C          C       0.40657   0.22719   0.67309  -0.08422
C          C       0.27788   0.19976   0.62729   0.05402
C          C       0.25765   0.17378   0.54588  -0.07719
C          C       0.16956   0.19864   0.66317   0.06324
C          C       0.13975   0.13456   0.49682  -0.23364
C          C       0.42151   0.25109   0.75060  -0.12009
C          C       0.30842   0.25082   0.78134   0.06926
C          C       0.36674   0.86722   0.57120   0.05703
C          C       0.50195   0.90699   0.60436   0.03102
C          C       0.33063   0.84438   0.49012  -0.07689
C          C       0.21874   0.77531   0.44378  -0.23629
C          C       0.46324   0.92224   0.72406   0.07834
C          C       0.32637   0.88783   0.69557  -0.12354
C          C       0.27675   0.85825   0.61869  -0.06669
N          N       0.23001   0.18684   0.23821  -0.24121
N          N       0.93041   0.54296   0.17961  -0.22363
N          N       0.81326   0.76857   0.26233  -0.24016
N          N       0.45695   0.06958   0.32083  -0.22410
N          N       0.77470   0.81574   0.76296  -0.22292
N          N       0.06939   0.45121   0.82184  -0.20500
N          N       0.18438   0.22577   0.73756  -0.22392
N          N       0.54960   0.93092   0.67844  -0.20464
O          O       0.11587   0.23238   0.89022  -0.57199
O          O       0.83145   0.28755   0.83682  -0.56401
O          O       0.09850   0.00654   0.87621  -0.54180
O          O       0.70789   0.08417   0.82173  -0.54550
O          O       0.76804   0.88421   0.61073  -0.57030
O          O       0.70965   0.16864   0.66196  -0.56302
O          O       0.99392   0.90777   0.62254  -0.53828
O          O       0.91439   0.29210   0.67902  -0.54583
O          O       0.88322   0.76822   0.11246  -0.57859
O          O       0.16172   0.71403   0.16342  -0.57452
O          O       0.92797   0.99293   0.12472  -0.51362
O          O       0.28822   0.91581   0.17781  -0.56008
O          O       0.23310   0.11667   0.38889  -0.57871
O          O       0.28529   0.83766   0.33812  -0.57598
O          O       0.00780   0.07267   0.37480  -0.51273
O          O       0.08448   0.70846   0.32342  -0.56101
O          O       0.92959   0.06977   0.74956  -0.79163
O          O       0.06484   0.93499   0.25083  -0.70476

