data_crystal

_audit_creation_method 'AiiDA-DDEC plugin'

_cell_length_a        12.87837
_cell_length_b        12.87597
_cell_length_c        14.69266

_cell_angle_alpha     91.47115
_cell_angle_beta     91.46745
_cell_angle_gamma     89.31995

_symmetry_space_group_name_Hall 'P 1'
_symmetry_space_group_name_H-M  'P 1'

loop_
_symmetry_equiv_pos_as_xyz
 'x,y,z'

loop_
_atom_site_label
_atom_site_type_symbol
_atom_site_fract_x
_atom_site_fract_y
_atom_site_fract_z
_atom_site_charge
Zn         Zn      0.39398   0.95126   0.22538   0.75482
Zn         Zn      0.04886   0.60599   0.27463   0.75526
Zn         Zn      0.60602   0.04873   0.77462   0.75478
Zn         Zn      0.95115   0.39401   0.72537   0.75495
Zn         Zn      0.61647   0.38345   0.24943   0.71855
Zn         Zn      0.38354   0.61655   0.75057   0.71850
H          H       0.64823   0.98549   0.11522   0.14220
H          H       0.49693   0.27826   0.05570   0.14138
H          H       0.66458   0.95483   0.94700   0.10759
H          H       0.51690   0.23491   0.89114   0.09765
H          H       0.54585   0.55502   0.37903   0.10560
H          H       0.41715   0.69860   0.38217   0.14771
H          H       0.45820   0.16416   0.48534   0.34310
H          H       0.01450   0.35173   0.38474   0.14212
H          H       0.72180   0.50309   0.44425   0.14137
H          H       0.04515   0.33542   0.55297   0.10791
H          H       0.76514   0.48314   0.60882   0.09733
H          H       0.44483   0.45406   0.12101   0.10515
H          H       0.30135   0.58284   0.11788   0.14753
H          H       0.83601   0.54196   0.01464   0.34290
H          H       0.35178   0.01451   0.88478   0.14199
H          H       0.50308   0.72174   0.94430   0.14147
H          H       0.33543   0.04517   0.05300   0.10753
H          H       0.48311   0.76508   0.10887   0.09778
H          H       0.45416   0.44498   0.62097   0.10543
H          H       0.58285   0.30139   0.61783   0.14777
H          H       0.54181   0.83584   0.51466   0.34313
H          H       0.98551   0.64827   0.61526   0.14201
H          H       0.27821   0.49691   0.55575   0.14157
H          H       0.95485   0.66458   0.44703   0.10764
H          H       0.23487   0.51685   0.39118   0.09761
H          H       0.55518   0.54594   0.87899   0.10515
H          H       0.69865   0.41716   0.88212   0.14785
H          H       0.16400   0.45804   0.98536   0.34294
C          C       0.54661   0.14650   0.19652   0.29613
C          C       0.56739   0.13297   0.09930   0.07125
C          C       0.61741   0.04202   0.06754  -0.15203
C          C       0.53343   0.20531   0.03488  -0.14264
C          C       0.62658   0.02439   0.97448   0.08845
C          C       0.54466   0.18145   0.94282   0.08621
C          C       0.49378   0.10991   0.33143  -0.02009
C          C       0.53352   0.20991   0.33475  -0.00256
C          C       0.54474   0.28658   0.41104   0.54935
C          C       0.43916   0.04868   0.39780   0.56867
C          C       0.18109  -0.00155   0.23465   0.52508
C          C       0.18952   0.88565   0.24581   0.00484
C          C       0.49280   0.56638   0.32129   0.09109
C          C       0.41879   0.64589   0.32300  -0.16523
C          C       0.85351   0.45338   0.30342   0.29631
C          C       0.86704   0.43259   0.40065   0.07156
C          C       0.95798   0.38257   0.43241  -0.15219
C          C       0.79473   0.46659   0.46508  -0.14264
C          C       0.97561   0.37342   0.52548   0.08803
C          C       0.81860   0.45538   0.55714   0.08694
C          C       0.89020   0.50628   0.16855  -0.02024
C          C       0.79019   0.46661   0.16519  -0.00358
C          C       0.71355   0.45550   0.08888   0.54952
C          C       0.95148   0.56085   0.10220   0.56893
C          C       0.00158   0.81889   0.26536   0.52556
C          C       0.11436   0.81047   0.25422   0.00505
C          C       0.43350   0.50714   0.17874   0.09033
C          C       0.35404   0.58117   0.17705  -0.16520
C          C       0.45340   0.85350   0.80348   0.29620
C          C       0.43262   0.86702   0.90070   0.07123
C          C       0.38260   0.95798   0.93246  -0.15208
C          C       0.46658   0.79469   0.96512  -0.14250
C          C       0.37343   0.97560   0.02552   0.08805
C          C       0.45535   0.81855   0.05718   0.08626
C          C       0.50623   0.89008   0.66857  -0.01992
C          C       0.46649   0.79009   0.66525  -0.00262
C          C       0.45526   0.71342   0.58896   0.54944
C          C       0.56084   0.95132   0.60220   0.56847
C          C       0.81892   0.00155   0.76535   0.52486
C          C       0.81049   0.11435   0.75420   0.00515
C          C       0.50721   0.43361   0.67871   0.09102
C          C       0.58122   0.35411   0.67701  -0.16528
C          C       0.14650   0.54661   0.69658   0.29616
C          C       0.13297   0.56741   0.59935   0.07159
C          C       0.04203   0.61743   0.56759  -0.15222
C          C       0.20527   0.53341   0.53492  -0.14254
C          C       0.02440   0.62657   0.47452   0.08795
C          C       0.18141   0.54462   0.44286   0.08694
C          C       0.10981   0.49372   0.83145  -0.02013
C          C       0.20982   0.53339   0.83481  -0.00360
C          C       0.28646   0.54450   0.91112   0.54924
C          C       0.04853   0.43914   0.89781   0.56901
C          C      -0.00157   0.18110   0.73465   0.52543
C          C       0.88565   0.18952   0.74578   0.00515
C          C       0.56650   0.49286   0.82126   0.09039
C          C       0.64597   0.41882   0.82295  -0.16516
C          C       0.26577   0.73424   0.25003   0.30078
C          C       0.34696   0.65302   0.25003   0.05715
C          C       0.73424   0.26576   0.74998   0.30070
C          C       0.65305   0.34698   0.74997   0.05719
N          N       0.58824   0.09156   0.91257  -0.24192
N          N       0.50345   0.06984   0.24455  -0.35376
N          N       0.56585   0.23285   0.24927  -0.33661
N          N       0.28475   0.83714   0.24471  -0.34341
N          N       0.90845   0.41179   0.58740  -0.24189
N          N       0.93021   0.49654   0.25543  -0.35346
N          N       0.76718   0.43421   0.25064  -0.33636
N          N       0.16288   0.71524   0.25533  -0.34351
N          N       0.41177   0.90843   0.08744  -0.24166
N          N       0.49656   0.93015   0.75545  -0.35397
N          N       0.43416   0.76715   0.75074  -0.33664
N          N       0.71526   0.16286   0.75529  -0.34375
N          N       0.09155   0.58821   0.41260  -0.24210
N          N       0.06980   0.50346   0.74458  -0.35366
N          N       0.23283   0.56579   0.74937  -0.33615
N          N       0.83712   0.28476   0.74467  -0.34362
N          N       0.50141   0.49850   0.24999  -0.22417
N          N       0.49860   0.50149   0.75001  -0.22438
O          O       0.50609   0.26467   0.48713  -0.50631
O          O       0.59231   0.37023   0.39484  -0.54480
O          O       0.42329   0.08909   0.47887  -0.43328
O          O       0.40671   0.96066   0.37313  -0.48320
O          O       0.26484   0.04795   0.21790  -0.50639
O          O       0.09387   0.04339   0.24092  -0.31550
O          O       0.73533   0.49432   0.01287  -0.50504
O          O       0.62988   0.40779   0.10499  -0.54435
O          O       0.91106   0.57674   0.02113  -0.43319
O          O       0.03951   0.59325   0.12685  -0.48316
O          O       0.95209   0.73513   0.28209  -0.50696
O          O       0.95664   0.90612   0.25908  -0.31577
O          O       0.49392   0.73532   0.51287  -0.50635
O          O       0.40770   0.62977   0.60516  -0.54493
O          O       0.57672   0.91090   0.52114  -0.43314
O          O       0.59329   0.03934   0.62687  -0.48311
O          O       0.73517   0.95205   0.78210  -0.50640
O          O       0.90614   0.95661   0.75908  -0.31508
O          O       0.26467   0.50567   0.98713  -0.50477
O          O       0.37013   0.59221   0.89502  -0.54405
O          O       0.08894   0.42325   0.97887  -0.43314
O          O       0.96050   0.40675   0.87315  -0.48340
O          O       0.04792   0.26487   0.71791  -0.50667
O          O       0.04336   0.09388   0.74092  -0.31548

