data_crystal

_audit_creation_method 'AiiDA-DDEC plugin'

_cell_length_a        12.84516
_cell_length_b        13.98992
_cell_length_c        14.25261

_cell_angle_alpha     89.98404
_cell_angle_beta     108.33761
_cell_angle_gamma     89.96268

_symmetry_space_group_name_Hall 'P 1'
_symmetry_space_group_name_H-M  'P 1'

loop_
_symmetry_equiv_pos_as_xyz
 'x,y,z'

loop_
_atom_site_label
_atom_site_type_symbol
_atom_site_fract_x
_atom_site_fract_y
_atom_site_fract_z
_atom_site_charge
Cs         Cs      0.25914   0.88231   0.24769   0.94547
Cs         Cs      0.74136   0.38233   0.75403   0.94611
Cd         Cd      0.51220   0.07979   0.25162   1.02417
Cd         Cd      0.98160   0.72602   0.25102   1.01742
Cd         Cd      0.48789   0.58006   0.74840   1.02527
Cd         Cd      0.02046   0.22619   0.74931   1.01766
H          H       0.50919   0.34991   0.03527   0.14072
H          H       0.79848   0.50772   0.03477   0.13099
H          H       0.91043   0.41272   0.17930   0.12637
H          H       0.82163   0.28262   0.24833   0.12470
H          H       0.52239   0.80441   0.50907   0.12475
H          H       0.78148   0.84133   0.37972   0.13295
H          H       0.88776   0.71200   0.48539   0.11894
H          H       0.80783   0.62268   0.59971   0.11661
H          H       0.97791   0.45518   0.46940   0.13988
H          H       0.68545   0.30286   0.46770   0.12651
H          H       0.57279   0.40723   0.33122   0.12681
H          H       0.66462   0.53786   0.26570   0.12686
H          H       0.00696   0.99586   0.02707   0.12368
H          H       0.72409   0.99136   0.12990   0.13255
H          H       0.64573   0.13026   0.02293   0.12089
H          H       0.74870   0.20282   0.91808   0.09700
H          H       0.49085   0.85046   0.96456   0.14093
H          H       0.20082   0.00792   0.96447   0.13116
H          H       0.08939   0.91267   0.82021   0.12646
H          H       0.17860   0.78224   0.75194   0.12439
H          H       0.47527   0.30447   0.48863   0.12560
H          H       0.21843   0.34159   0.62113   0.13328
H          H       0.11171   0.21242   0.51657   0.11937
H          H       0.18992   0.12295   0.40118   0.11699
H          H       0.02265   0.95398   0.53040   0.14005
H          H       0.31622   0.80194   0.53341   0.12621
H          H       0.42794   0.90766   0.66876   0.12672
H          H       0.33487   0.03757   0.73415   0.12679
H          H       0.99403   0.49618   0.97410   0.12458
H          H       0.27572   0.49123   0.86965   0.13266
H          H       0.35459   0.63018   0.97616   0.12084
H          H       0.25206   0.70305   0.08154   0.09720
C          C       0.59701   0.36288   0.06564  -0.11561
C          C       0.64732   0.43343   0.02488  -0.01129
C          C       0.76078   0.45126   0.06572  -0.08464
C          C       0.82339   0.39754   0.14630  -0.08374
C          C       0.77406   0.32536   0.18557  -0.06179
C          C       0.66052   0.30815   0.14510  -0.02627
C          C       0.58039   0.48658   0.93558   0.55216
C          C       0.60797   0.23026   0.18496   0.52306
C          C       0.60180   0.78344   0.50368  -0.10966
C          C       0.64540   0.83142   0.43865  -0.03139
C          C       0.74846   0.80450   0.43145  -0.02780
C          C       0.80772   0.73049   0.49078  -0.08114
C          C       0.76341   0.68119   0.55411  -0.08012
C          C       0.65956   0.70727   0.56048  -0.00806
C          C       0.58194   0.91142   0.37822   0.55822
C          C       0.61188   0.65613   0.62874   0.54666
C          C       0.88943   0.44549   0.44010  -0.11456
C          C       0.83767   0.37465   0.47873  -0.02287
C          C       0.72333   0.36047   0.43854  -0.06384
C          C       0.66067   0.41920   0.36261  -0.08870
C          C       0.71152   0.49144   0.32534  -0.06072
C          C       0.82631   0.50382   0.36332  -0.01513
C          C       0.87965   0.57972   0.32172   0.52354
C          C       0.90073   0.31744   0.56651   0.54103
C          C       0.92818   0.02518   0.02616  -0.11457
C          C       0.87115   0.98534   0.08569  -0.01315
C          C       0.76841   0.02315   0.08400  -0.02960
C          C       0.72470   0.10164   0.02369  -0.08213
C          C       0.78188   0.14173   0.96516  -0.07657
C          C       0.88364   0.10306   0.96498  -0.00374
C          C       0.94061   0.14263   0.89704   0.54469
C          C       0.91675   0.90007   0.14783   0.55983
C          C       0.40295   0.86309   0.93430  -0.11567
C          C       0.35225   0.93337   0.97513  -0.01127
C          C       0.23883   0.95125   0.93404  -0.08359
C          C       0.17644   0.89762   0.85339  -0.08454
C          C       0.22599   0.82532   0.81441  -0.06046
C          C       0.33957   0.80838   0.85486  -0.02762
C          C       0.41934   0.98635   0.06437   0.55348
C          C       0.39223   0.73050   0.81504   0.52348
C          C       0.39625   0.28382   0.49521  -0.10870
C          C       0.35388   0.33157   0.56119  -0.03296
C          C       0.25102   0.30481   0.56913  -0.02742
C          C       0.19127   0.23094   0.51007  -0.08252
C          C       0.23459   0.18162   0.44623  -0.08018
C          C       0.33786   0.20780   0.43872  -0.00693
C          C       0.41808   0.41106   0.62199   0.55828
C          C       0.38460   0.15621   0.37015   0.54635
C          C       0.11108   0.94423   0.55989  -0.11428
C          C       0.16353   0.87368   0.52127  -0.02429
C          C       0.27782   0.85986   0.56170  -0.06545
C          C       0.34004   0.91898   0.63747  -0.08804
C          C       0.28845   0.99070   0.67480  -0.06111
C          C       0.17367   0.00237   0.63708  -0.01592
C          C       0.12007   0.07825   0.67867   0.52296
C          C       0.10048   0.81610   0.43384   0.53975
C          C       0.07257   0.52533   0.97445  -0.11662
C          C       0.12917   0.48562   0.91448  -0.01113
C          C       0.23169   0.52327   0.91573  -0.02937
C          C       0.27586   0.60166   0.97591  -0.08271
C          C       0.21895   0.64181   0.03474  -0.07435
C          C       0.11740   0.60320   0.03528  -0.00326
C          C       0.06062   0.64280   0.10323   0.54332
C          C       0.08304   0.40073   0.85234   0.55782
O          O       0.48484   0.51402   0.92797  -0.46177
O          O       0.62426   0.50013   0.86680  -0.56344
O          O       0.66769   0.16379   0.23643  -0.46548
O          O       0.50399   0.22904   0.16678  -0.47245
O          O       0.48225   0.92371   0.37123  -0.56838
O          O       0.63192   0.96668   0.33422  -0.46796
O          O       0.67386   0.60906   0.70073  -0.49062
O          O       0.50816   0.66211   0.61439  -0.48733
O          O       0.82452   0.65391   0.28391  -0.44477
O          O       0.97933   0.57130   0.32430  -0.47564
O          O       0.00452   0.30975   0.59043  -0.48331
O          O       0.84789   0.27979   0.61946  -0.53198
O          O       0.88113   0.18602   0.81901  -0.51915
O          O       0.04291   0.13303   0.91451  -0.48058
O          O       0.01982   0.88654   0.18003  -0.58038
O          O       0.85044   0.84047   0.16607  -0.44936
O          O       0.51466   0.01388   0.07163  -0.46142
O          O       0.37581  -0.00007   0.13339  -0.56423
O          O       0.33270   0.66392   0.76385  -0.46534
O          O       0.49619   0.72917   0.83311  -0.47178
O          O       0.51765   0.42346   0.62860  -0.56547
O          O       0.36908   0.46637   0.66687  -0.46625
O          O       0.32213   0.10875   0.29908  -0.48871
O          O       0.48820   0.16202   0.38406  -0.48826
O          O       0.17559   0.15204   0.71745  -0.44767
O          O       0.02021   0.07067   0.67553  -0.47444
O          O       0.99660   0.80953   0.40968  -0.48153
O          O       0.15270   0.77652   0.38109  -0.53104
O          O       0.12105   0.68577   0.18119  -0.51830
O          O       0.95826   0.63353   0.08588  -0.48180
O          O       0.98017   0.38703   0.82117  -0.57991
O          O       0.14954   0.34168   0.83337  -0.44995

