data_crystal

_audit_creation_method 'AiiDA-DDEC plugin'

_cell_length_a        17.33222
_cell_length_b        16.62624
_cell_length_c        16.63274

_cell_angle_alpha     74.47574
_cell_angle_beta     58.85379
_cell_angle_gamma     58.84993

_symmetry_space_group_name_Hall 'P 1'
_symmetry_space_group_name_H-M  'P 1'

loop_
_symmetry_equiv_pos_as_xyz
 'x,y,z'

loop_
_atom_site_label
_atom_site_type_symbol
_atom_site_fract_x
_atom_site_fract_y
_atom_site_fract_z
_atom_site_charge
Eu         Eu      0.49445   0.49665   0.77901   1.39421
Eu         Eu      0.77181   0.00120   0.71849   1.39417
Eu         Eu      0.48965   0.78093   0.00354   1.39496
Eu         Eu      0.27277   0.72069   0.49764   1.39382
Eu         Eu      0.50555   0.50336   0.22099   1.39430
Eu         Eu      0.22819  -0.00119   0.28152   1.39414
Eu         Eu      0.51035   0.21907   0.99646   1.39491
Eu         Eu      0.72723   0.27931   0.50237   1.39375
H          H       0.70572   0.68324   0.72902   0.13502
H          H       0.84910   0.62071   0.56729   0.11743
H          H       0.85912   0.49571   0.49691   0.13454
H          H       0.11554   0.81816   0.77326   0.13366
H          H       0.03378   0.88167   0.93516   0.11645
H          H       0.84957   0.00619   0.00354   0.13349
H          H       0.88655   0.72852   0.81801   0.13226
H          H       0.96699   0.56618   0.88014   0.11670
H          H       0.85202   0.49686   0.00547   0.13522
H          H       0.43575   0.77131   0.68247   0.13204
H          H       0.41768   0.93335   0.62044   0.11671
H          H       0.35719   0.00377   0.49590   0.13325
H          H       0.29428   0.31677   0.27098   0.13477
H          H       0.15091   0.37930   0.43271   0.11722
H          H       0.14088   0.50429   0.50309   0.13457
H          H       0.88446   0.18185   0.22674   0.13371
H          H       0.96623   0.11833   0.06484   0.11636
H          H       0.15043   0.99382   0.99646   0.13334
H          H       0.11345   0.27148   0.18199   0.13214
H          H       0.03301   0.43383   0.11986   0.11668
H          H       0.14798   0.50315   0.99453   0.13527
H          H       0.56425   0.22869   0.31753   0.13197
H          H       0.58232   0.06666   0.37956   0.11648
H          H       0.64281   0.99624   0.50410   0.13309
C          C       0.55417   0.62798   0.83840   0.57747
C          C       0.64411   0.59391   0.74221   0.10365
C          C       0.71463   0.62917   0.69524  -0.12699
C          C       0.79354   0.59410   0.60590  -0.04408
C          C       0.79993   0.52520   0.56633  -0.13131
C          C       0.72631   0.49373   0.61822   0.11423
C          C       0.72570   0.42091   0.58093   0.54043
C          C       0.02026   0.87153   0.66198   0.57746
C          C       0.97945   0.90671   0.75808   0.10281
C          C       0.03714   0.87218   0.80620  -0.12426
C          C       0.99110   0.90775   0.89564  -0.04346
C          C       0.88969   0.97637   0.93410  -0.13139
C          C       0.83752   0.00708   0.88115   0.11645
C          C       0.72738   0.07919   0.91767   0.54136
C          C       0.68031   0.83941   0.87353   0.57530
C          C       0.73583   0.74292   0.90768   0.10438
C          C       0.84141   0.69510   0.87213  -0.12455
C          C       0.88499   0.60543   0.90700  -0.04282
C          C       0.82247   0.56644   0.97608  -0.13166
C          C       0.71756   0.61915   0.00787   0.11133
C          C       0.64412   0.58256   0.08110   0.54163
C          C       0.39300   0.66164   0.62743   0.57478
C          C       0.38713   0.75793   0.59335   0.10468
C          C       0.41094   0.80505   0.62854  -0.12355
C          C       0.40062   0.89461   0.59374  -0.04339
C          C       0.36730   0.93419   0.52516  -0.13039
C          C       0.34498   0.88227   0.49394   0.11278
C          C       0.30565   0.92012   0.42234   0.54369
C          C       0.44583   0.37202   0.16160   0.57752
C          C       0.35589   0.40610   0.25779   0.10360
C          C       0.28537   0.37084   0.30477  -0.12707
C          C       0.20647   0.40590   0.39410  -0.04435
C          C       0.20007   0.47481   0.43367  -0.13095
C          C       0.27369   0.50628   0.38179   0.11414
C          C       0.27430   0.57910   0.41907   0.54025
C          C       0.97974   0.12848   0.33802   0.57747
C          C       0.02055   0.09330   0.24192   0.10283
C          C       0.96286   0.12782   0.19380  -0.12421
C          C       0.00890   0.09226   0.10436  -0.04356
C          C       0.11031   0.02363   0.06591  -0.13148
C          C       0.16248   0.99292   0.11885   0.11629
C          C       0.27262   0.92082   0.08233   0.54151
C          C       0.31969   0.16060   0.12648   0.57539
C          C       0.26417   0.25709   0.09232   0.10435
C          C       0.15859   0.30491   0.12787  -0.12465
C          C       0.11502   0.39458   0.09301  -0.04283
C          C       0.17753   0.43356   0.02393  -0.13151
C          C       0.28244   0.38086   0.99214   0.11120
C          C       0.35588   0.41744   0.91890   0.54143
C          C       0.60700   0.33837   0.37257   0.57465
C          C       0.61287   0.24208   0.40665   0.10456
C          C       0.58906   0.19495   0.37146  -0.12362
C          C       0.59938   0.10539   0.40626  -0.04352
C          C       0.63270   0.06581   0.47484  -0.13058
C          C       0.65503   0.11773   0.50607   0.11293
C          C       0.69435   0.07988   0.57766   0.54339
N          N       0.65069   0.52750   0.70399  -0.34408
N          N       0.88198   0.97284   0.79527  -0.34550
N          N       0.67603   0.70515   0.97411  -0.34401
N          N       0.35508   0.79625   0.52741  -0.34420
N          N       0.34931   0.47251   0.29601  -0.34385
N          N       0.11802   0.02716   0.20473  -0.34535
N          N       0.32397   0.29485   0.02589  -0.34391
N          N       0.64492   0.20376   0.47259  -0.34380
O          O       0.49101   0.59621   0.87026  -0.60275
O          O       0.55007   0.68616   0.87867  -0.63225
O          O       0.65196   0.39884   0.63314  -0.66976
O          O       0.79595   0.38525   0.50154  -0.56653
O          O       0.95766   0.90147   0.62988  -0.60367
O          O       0.11414   0.81433   0.62200  -0.63074
O          O       0.68438   0.10098   0.86485  -0.66855
O          O       0.68246   0.11451   0.99749  -0.56846
O          O       0.58545   0.87231   0.90542  -0.60058
O          O       0.73466   0.87884   0.81484  -0.63148
O          O       0.54859   0.63478   0.10271  -0.66917
O          O       0.67863   0.50356   0.11753  -0.56660
O          O       0.36023   0.63018   0.59669  -0.60177
O          O       0.43024   0.62084   0.68446  -0.62928
O          O       0.28354   0.86799   0.40046  -0.67095
O          O       0.29570   0.00014   0.38766  -0.56788
O          O       0.50899   0.40380   0.12974  -0.60254
O          O       0.44993   0.31385   0.12133  -0.63257
O          O       0.34804   0.60116   0.36686  -0.66948
O          O       0.20405   0.61475   0.49846  -0.56643
O          O       0.04234   0.09853   0.37012  -0.60340
O          O       0.88586   0.18568   0.37800  -0.63077
O          O       0.31562   0.89903   0.13515  -0.66841
O          O       0.31755   0.88550   0.00251  -0.56883
O          O       0.41455   0.12769   0.09459  -0.60055
O          O       0.26534   0.12117   0.18516  -0.63169
O          O       0.45142   0.36523   0.89730  -0.66903
O          O       0.32137   0.49644   0.88247  -0.56637
O          O       0.63977   0.36983   0.40331  -0.60129
O          O       0.56976   0.37917   0.31554  -0.62935
O          O       0.71646   0.13202   0.59955  -0.67038
O          O       0.70431  -0.00013   0.61234  -0.56816

