data_crystal

_audit_creation_method 'AiiDA-DDEC plugin'

_cell_length_a         6.18899
_cell_length_b        13.48248
_cell_length_c        15.50320

_cell_angle_alpha     90.00000
_cell_angle_beta     90.00000
_cell_angle_gamma     90.00135

_symmetry_space_group_name_Hall 'P 1'
_symmetry_space_group_name_H-M  'P 1'

loop_
_symmetry_equiv_pos_as_xyz
 'x,y,z'

loop_
_atom_site_label
_atom_site_type_symbol
_atom_site_fract_x
_atom_site_fract_y
_atom_site_fract_z
_atom_site_charge
Ag         Ag      0.25000   0.75000   0.74997   0.21676
Ag         Ag      0.75000   0.25000   0.25003   0.21672
H          H       0.46613   0.53282   0.75000   0.07177
H          H       0.72022   0.42939   0.66308   0.10811
H          H       0.69814   0.65592   0.46700   0.10722
H          H       0.45212   0.75192   0.56251   0.06885
H          H       0.89733   0.39897   0.52257   0.08982
H          H       0.82288   0.47297   0.43415   0.09846
H          H       0.03387   0.96718   0.75000   0.07173
H          H       0.77978   0.07061   0.66308   0.10805
H          H       0.80186   0.84407   0.46700   0.10727
H          H       0.04788   0.74807   0.56251   0.06898
H          H       0.60268   0.10103   0.52257   0.08977
H          H       0.67712   0.02703   0.43415   0.09846
H          H       0.03397   0.53281   0.75000   0.07110
H          H       0.77987   0.42939   0.83691   0.10823
H          H       0.80193   0.65593   0.03298   0.10719
H          H       0.04796   0.75192   0.93748   0.06859
H          H       0.60269   0.39897   0.97742   0.09042
H          H       0.67714   0.47297   0.06584   0.09825
H          H       0.46603   0.96719   0.75001   0.07105
H          H       0.72013   0.07061   0.83692   0.10832
H          H       0.69807   0.84406   0.03298   0.10726
H          H       0.45204   0.74808   0.93749   0.06868
H          H       0.89731   0.10103   0.97742   0.09037
H          H       0.82287   0.02703   0.06584   0.09821
H          H       0.53387   0.46718   0.25000   0.07179
H          H       0.27978   0.57061   0.33692   0.10811
H          H       0.30187   0.34408   0.53300   0.10719
H          H       0.54788   0.24808   0.43749   0.06897
H          H       0.10268   0.60103   0.47743   0.08975
H          H       0.17712   0.52703   0.56585   0.09839
H          H       0.96613   0.03282   0.25000   0.07175
H          H       0.22023   0.92939   0.33692   0.10820
H          H       0.19814   0.15593   0.53300   0.10719
H          H       0.95213   0.25193   0.43749   0.06885
H          H       0.39733   0.89897   0.47743   0.08991
H          H       0.32288   0.97296   0.56585   0.09844
H          H       0.96603   0.46719   0.25000   0.07105
H          H       0.22014   0.57061   0.16309   0.10822
H          H       0.19808   0.34407   0.96701   0.10727
H          H       0.95204   0.24808   0.06252   0.06865
H          H       0.39731   0.60103   0.02258   0.09033
H          H       0.32287   0.52703   0.93415   0.09828
H          H       0.53398   0.03281   0.24999   0.07105
H          H       0.27987   0.92939   0.16308   0.10832
H          H       0.30193   0.15593   0.96701   0.10728
H          H       0.54797   0.25192   0.06251   0.06866
H          H       0.10269   0.89897   0.02257   0.09044
H          H       0.17713   0.97297   0.93415   0.09826
C          C       0.52167   0.55725   0.68677   0.04539
C          C       0.66371   0.50024   0.63796  -0.20689
C          C       0.73147   0.53301   0.55646   0.13562
C          C       0.65203   0.62610   0.52952  -0.20751
C          C       0.51236   0.67929   0.58192   0.06635
C          C       0.88529   0.47634   0.50057  -0.20189
C          C       0.97833   0.94275   0.68676   0.04546
C          C       0.83630  -0.00024   0.63796  -0.20695
C          C       0.76854   0.96699   0.55646   0.13549
C          C       0.84798   0.87389   0.52952  -0.20746
C          C       0.98763   0.82072   0.58192   0.06617
C          C       0.61471   0.02366   0.50057  -0.20186
C          C       0.97837   0.55725   0.81323   0.04772
C          C       0.83632   0.50025   0.86203  -0.20707
C          C       0.76854   0.53302   0.94353   0.13511
C          C       0.84800   0.62612   0.97046  -0.20719
C          C       0.98768   0.67929   0.91806   0.06680
C          C       0.61472   0.47635  -0.00058  -0.20248
C          C       0.52162   0.94275   0.81323   0.04775
C          C       0.66368  -0.00025   0.86203  -0.20719
C          C       0.73146   0.96697   0.94353   0.13500
C          C       0.65201   0.87388   0.97046  -0.20711
C          C       0.51231   0.82070   0.91806   0.06669
C          C       0.88528   0.02365  -0.00058  -0.20250
C          C       0.47834   0.44275   0.31323   0.04555
C          C       0.33630   0.49976   0.36204  -0.20708
C          C       0.26854   0.46699   0.44354   0.13560
C          C       0.34797   0.37390   0.47048  -0.20742
C          C       0.48764   0.32071   0.41808   0.06616
C          C       0.11471   0.52366   0.49943  -0.20179
C          C       0.02167   0.05725   0.31323   0.04547
C          C       0.16370   0.00024   0.36204  -0.20705
C          C       0.23147   0.03301   0.44354   0.13551
C          C       0.15203   0.12611   0.47048  -0.20742
C          C       0.01237   0.17928   0.41808   0.06624
C          C       0.38529   0.97634   0.49943  -0.20200
C          C       0.02163   0.44275   0.18677   0.04767
C          C       0.16368   0.49974   0.13797  -0.20713
C          C       0.23146   0.46698   0.05647   0.13511
C          C       0.15200   0.37388   0.02954  -0.20719
C          C       0.01232   0.32070   0.08194   0.06678
C          C       0.38528   0.52365   0.00058  -0.20250
C          C       0.47838   0.05725   0.18677   0.04775
C          C       0.33632   0.00025   0.13797  -0.20717
C          C       0.26854   0.03302   0.05647   0.13504
C          C       0.34800   0.12611   0.02953  -0.20724
C          C       0.48769   0.17930   0.08194   0.06679
C          C       0.11472   0.97635   0.00058  -0.20242
N          N       0.44228   0.64592   0.65943  -0.22954
N          N       0.05773   0.85408   0.65943  -0.22945
N          N       0.05775   0.64593   0.84054  -0.23075
N          N       0.44225   0.85407   0.84054  -0.23066
N          N       0.55773   0.35408   0.34057  -0.22946
N          N       0.94228   0.14592   0.34057  -0.22946
N          N       0.94226   0.35407   0.15946  -0.23068
N          N       0.55775   0.14593   0.15946  -0.23070

