data_crystal

_audit_creation_method 'AiiDA-DDEC plugin'

_cell_length_a        12.53282
_cell_length_b        13.80518
_cell_length_c        14.46636

_cell_angle_alpha     105.26038
_cell_angle_beta     90.13355
_cell_angle_gamma     90.17342

_symmetry_space_group_name_Hall 'P 1'
_symmetry_space_group_name_H-M  'P 1'

loop_
_symmetry_equiv_pos_as_xyz
 'x,y,z'

loop_
_atom_site_label
_atom_site_type_symbol
_atom_site_fract_x
_atom_site_fract_y
_atom_site_fract_z
_atom_site_charge
Zn         Zn      0.78105   0.79554   0.91932   0.91814
Zn         Zn      0.98133   0.64706   0.83468   0.90373
Zn         Zn      0.27913   0.70412   0.58090   0.91629
Zn         Zn      0.47945   0.85421   0.66721   0.90241
Zn         Zn      0.21895   0.20446   0.08068   0.91814
Zn         Zn      0.01868   0.35294   0.16532   0.90372
Zn         Zn      0.72088   0.29588   0.41909   0.91628
Zn         Zn      0.52055   0.14579   0.33279   0.90232
H          H       0.98457   0.52429   0.06510   0.10448
H          H       0.66656   0.63158   0.14353   0.13454
H          H       0.66425   0.52018   0.25778   0.13109
H          H       0.82005   0.47365   0.59085   0.11330
H          H       0.54499   0.60953   0.74927   0.14043
H          H       0.42990   0.48700   0.62601   0.13125
H          H       0.48510   0.97468   0.43400   0.10585
H          H       0.16561   0.86833   0.35631   0.13393
H          H       0.16286   0.98080   0.24314   0.13068
H          H       0.31873   0.02617   0.90981   0.11396
H          H       0.04375   0.88941   0.74896   0.14085
H          H       0.92869   0.01035   0.87188   0.13085
H          H       0.01543   0.47571   0.93490   0.10447
H          H       0.33344   0.36842   0.85646   0.13459
H          H       0.33575   0.47982   0.74222   0.13124
H          H       0.17996   0.52635   0.40914   0.11322
H          H       0.45501   0.39047   0.25073   0.14045
H          H       0.57010   0.51300   0.37398   0.13135
H          H       0.51490   0.02532   0.56600   0.10579
H          H       0.83440   0.13167   0.64368   0.13396
H          H       0.83714   0.01920   0.75685   0.13071
H          H       0.68127   0.97383   0.09019   0.11395
H          H       0.95625   0.11059   0.25104   0.14078
H          H       0.07132   0.98965   0.12811   0.13090
C          C       0.91083   0.52446   0.10402   0.09232
C          C       0.82462   0.58471   0.09327  -0.06336
C          C       0.73426   0.58440   0.14981  -0.03784
C          C       0.73261   0.52270   0.21248  -0.11875
C          C       0.82018   0.46147   0.21574   0.10218
C          C       0.83221   0.64268   0.01824   0.58929
C          C       0.82656   0.38863   0.27761   0.54810
C          C       0.73414   0.47778   0.60154   0.09554
C          C       0.69094   0.54705   0.68102  -0.06113
C          C       0.57977   0.55251   0.69042  -0.02284
C          C       0.51665   0.48557   0.62327  -0.13691
C          C       0.56592   0.41634   0.54770   0.10311
C          C       0.76364   0.61299   0.75409   0.59652
C          C       0.50118   0.33883   0.47576   0.52999
C          C       0.41102   0.97500   0.39536   0.09158
C          C       0.32443   0.91482   0.40629  -0.06234
C          C       0.23355   0.91559   0.35017  -0.03752
C          C       0.23165   0.97787   0.28804  -0.12152
C          C       0.31966   0.03894   0.28449   0.10593
C          C       0.33194   0.85683   0.48137   0.58895
C          C       0.32619   0.11135   0.22204   0.54864
C          C       0.23280   0.02174   0.89850   0.09588
C          C       0.18961   0.95240   0.81856  -0.06036
C          C       0.07853   0.94637   0.80822  -0.02134
C          C       0.01541   0.01263   0.87510  -0.13712
C          C       0.06451   0.08204   0.95110   0.10061
C          C       0.26191   0.88661   0.74591   0.59432
C          C      -0.00087   0.15874   0.02250   0.53221
C          C       0.08917   0.47554   0.89597   0.09211
C          C       0.17538   0.41529   0.90673  -0.06327
C          C       0.26574   0.41560   0.85019  -0.03797
C          C       0.26739   0.47730   0.78752  -0.11866
C          C       0.17982   0.53853   0.78426   0.10220
C          C       0.16780   0.35732   0.98175   0.58938
C          C       0.17344   0.61137   0.72238   0.54800
C          C       0.26586   0.52222   0.39845   0.09565
C          C       0.30906   0.45295   0.31898  -0.06120
C          C       0.42023   0.44749   0.30958  -0.02279
C          C       0.48335   0.51443   0.37673  -0.13687
C          C       0.43408   0.58366   0.45230   0.10319
C          C       0.23636   0.38701   0.24591   0.59646
C          C       0.49883   0.66117   0.52424   0.52992
C          C       0.58898   0.02500   0.60464   0.09165
C          C       0.67558   0.08519   0.59370  -0.06236
C          C       0.76645   0.08441   0.64982  -0.03744
C          C       0.76835   0.02213   0.71195  -0.12153
C          C       0.68035   0.96107   0.71551   0.10582
C          C       0.66806   0.14317   0.51863   0.58886
C          C       0.67381   0.88865   0.77796   0.54871
C          C       0.76720   0.97826   0.10149   0.09594
C          C       0.81039   0.04760   0.18144  -0.06054
C          C       0.92147   0.05363   0.19177  -0.02118
C          C       0.98459   0.98737   0.12490  -0.13716
C          C       0.93549   0.91796   0.04890   0.10056
C          C       0.73810   0.11339   0.25409   0.59423
C          C       0.00087   0.84126   0.97750   0.53225
N          N       0.90774   0.46304   0.16183  -0.24398
N          N       0.67303   0.41454   0.53634  -0.24233
N          N       0.40788   0.03671   0.33777  -0.24527
N          N       0.17167   0.08461   0.96333  -0.24282
N          N       0.09227   0.53696   0.83816  -0.24402
N          N       0.32697   0.58546   0.46365  -0.24255
N          N       0.59213   0.96329   0.66223  -0.24528
N          N       0.82833   0.91539   0.03666  -0.24284
O          O       0.76629   0.71372   0.02337  -0.54727
O          O       0.90497   0.61292   0.95626  -0.57824
O          O       0.75149   0.39440   0.33828  -0.53661
O          O       0.90524   0.32960   0.26495  -0.50713
O          O       0.71889   0.67483   0.82341  -0.52828
O          O       0.86370   0.59961   0.73980  -0.55054
O          O       0.40685   0.32385   0.49081  -0.47962
O          O       0.55570   0.29063   0.39908  -0.57871
O          O       0.26463   0.78657   0.47695  -0.54826
O          O       0.40614   0.88599   0.54264  -0.57823
O          O       0.24815   0.10903   0.16471  -0.53733
O          O       0.40812   0.16661   0.23087  -0.50854
O          O       0.21686   0.82443   0.67648  -0.52521
O          O       0.36203   0.90042   0.76066  -0.54886
O          O       0.90406   0.17117   0.00819  -0.48068
O          O       0.05410   0.20924   0.09821  -0.57811
O          O       0.23371   0.28628   0.97663  -0.54722
O          O       0.09503   0.38708   0.04374  -0.57838
O          O       0.24851   0.60560   0.66171  -0.53647
O          O       0.09476   0.67040   0.73505  -0.50707
O          O       0.28112   0.32517   0.17658  -0.52809
O          O       0.13630   0.40039   0.26020  -0.55063
O          O       0.59315   0.67615   0.50919  -0.47938
O          O       0.44430   0.70937   0.60091  -0.57888
O          O       0.73537   0.21343   0.52305  -0.54816
O          O       0.59387   0.11401   0.45736  -0.57823
O          O       0.75186   0.89097   0.83528  -0.53732
O          O       0.59189   0.83339   0.76913  -0.50867
O          O       0.78314   0.17557   0.32352  -0.52511
O          O       0.63797   0.09958   0.23933  -0.54877
O          O       0.09594   0.82883   0.99181  -0.48063
O          O       0.94591   0.79077   0.90179  -0.57806

