data_crystal

_audit_creation_method 'AiiDA-DDEC plugin'

_cell_length_a        12.10290
_cell_length_b        12.10492
_cell_length_c        14.02051

_cell_angle_alpha     87.33039
_cell_angle_beta     87.36285
_cell_angle_gamma     71.83537

_symmetry_space_group_name_Hall 'P 1'
_symmetry_space_group_name_H-M  'P 1'

loop_
_symmetry_equiv_pos_as_xyz
 'x,y,z'

loop_
_atom_site_label
_atom_site_type_symbol
_atom_site_fract_x
_atom_site_fract_y
_atom_site_fract_z
_atom_site_charge
Zn         Zn      0.31019   0.22366   0.34646   0.78284
Zn         Zn      0.77602   0.69004   0.15326   0.78283
Zn         Zn      0.68981   0.77634   0.65354   0.78289
Zn         Zn      0.22398   0.30996   0.84674   0.78281
H          H       0.17624   0.60049   0.29844   0.12201
H          H       0.21064   0.80992   0.04841   0.11044
H          H       0.23129   0.63868   0.94693   0.12205
H          H       0.07853   0.21037   0.29353   0.10181
H          H       0.94074   0.10567   0.35385   0.12504
H          H       0.15879   0.98996   0.59844   0.12954
H          H       0.28925   0.09225   0.52601   0.11743
H          H       0.22664   0.09911   0.18763   0.10592
H          H       0.29819   0.03282   0.02570   0.12881
H          H       0.39925   0.82371   0.20136   0.12252
H          H       0.19009   0.78938   0.45140   0.11013
H          H       0.36136   0.76881   0.55295   0.12202
H          H       0.78946   0.92141   0.20625   0.10183
H          H       0.89421   0.05922   0.14602   0.12532
H          H       0.01003   0.84130   0.90152   0.12959
H          H       0.90765   0.71087   0.97387   0.11709
H          H       0.90045   0.77346   0.31236   0.10617
H          H       0.96686   0.70181   0.47433   0.12910
H          H       0.82377   0.39951   0.70156   0.12210
H          H       0.78936   0.19008   0.95159   0.11035
H          H       0.76872   0.36132   0.05307   0.12189
H          H       0.92147   0.78964   0.70647   0.10172
H          H       0.05927   0.89434   0.64615   0.12504
H          H       0.84121   0.01005   0.40155   0.12962
H          H       0.71076   0.90775   0.47398   0.11735
H          H       0.77336   0.90089   0.81237   0.10605
H          H       0.70182   0.96718   0.97430   0.12890
H          H       0.60075   0.17630   0.79863   0.12242
H          H       0.80991   0.21062   0.54859   0.11023
H          H       0.63864   0.23119   0.44705   0.12213
H          H       0.21054   0.07860   0.79375   0.10190
H          H       0.10579   0.94078   0.85398   0.12527
H          H       0.98997   0.15870   0.09848   0.12947
H          H       0.09235   0.28914   0.02613   0.11723
H          H       0.09955   0.22655   0.68764   0.10610
H          H       0.03314   0.29820   0.52567   0.12899
C          C       0.20369   0.39986   0.21593   0.57430
C          C       0.20155   0.51330   0.16519  -0.02185
C          C       0.18705   0.60973   0.22138  -0.10703
C          C       0.18759   0.71607   0.17845  -0.08760
C          C       0.20689   0.72743   0.07993  -0.10016
C          C       0.21853   0.63213   0.02400  -0.09956
C          C       0.21489   0.52542   0.06527  -0.01006
C          C       0.23338   0.42555   0.00022   0.56445
C          C       0.09333   0.15701   0.35931   0.07893
C          C       0.01642   0.09955   0.39495  -0.16043
C          C       0.03841   0.03365   0.48119   0.10549
C          C       0.13730   0.03440   0.52950  -0.14704
C          C       0.21201   0.09185   0.48929   0.10329
C          C       0.31630   0.08746   0.16510   0.14208
C          C       0.35691   0.05105   0.07453  -0.19739
C          C       0.47662   0.03565   0.04335   0.15257
C          C       0.55738   0.02241   0.12662  -0.19837
C          C       0.48708   0.10523   0.18795   0.37962
C          C       0.51681   0.14991   0.04669   0.05956
C          C       0.53315   0.18923   0.13013  -0.11938
C          C       0.60002   0.79647   0.28394   0.57529
C          C       0.48660   0.79862   0.33463  -0.02208
C          C       0.39016   0.81290   0.27844  -0.10702
C          C       0.28390   0.81228   0.32142  -0.08864
C          C       0.27260   0.79311   0.41996  -0.09985
C          C       0.36794   0.78162   0.47588  -0.09933
C          C       0.47456   0.78542   0.43459  -0.01018
C          C       0.57448   0.76718   0.49964   0.56439
C          C       0.84286   0.90666   0.14052   0.07881
C          C       0.90037   0.98356   0.10493  -0.16022
C          C       0.96633   0.96160   0.01877   0.10503
C          C       0.96558   0.86276   0.97043  -0.14666
C          C       0.90808   0.78806   0.01059   0.10348
C          C       0.91229   0.68375   0.33486   0.14125
C          C       0.94874   0.64310   0.42545  -0.19680
C          C       0.96433   0.52337   0.45662   0.15241
C          C       0.97761   0.44268   0.37335  -0.19792
C          C       0.89475   0.51296   0.31197   0.37915
C          C       0.85008   0.48307   0.45327   0.05890
C          C       0.81084   0.46677   0.36978  -0.11966
C          C       0.79632   0.60014   0.78407   0.57414
C          C       0.79845   0.48670   0.83481  -0.02176
C          C       0.81295   0.39027   0.77862  -0.10704
C          C       0.81242   0.28393   0.82155  -0.08764
C          C       0.79311   0.27258   0.92007  -0.10028
C          C       0.78147   0.36788   0.97600  -0.09946
C          C       0.78512   0.47458   0.93473  -0.01011
C          C       0.76662   0.57445  -0.00022   0.56419
C          C       0.90667   0.84299   0.64069   0.07883
C          C       0.98359   0.90046   0.60505  -0.16029
C          C       0.96160   0.96635   0.51881   0.10546
C          C       0.86271   0.96560   0.47049  -0.14706
C          C       0.78799   0.90816   0.51071   0.10339
C          C       0.68370   0.91254   0.83490   0.14202
C          C       0.64309   0.94896   0.92547  -0.19732
C          C       0.52339   0.96436   0.95664   0.15254
C          C       0.44262   0.97759   0.87338  -0.19825
C          C       0.51292   0.89477   0.81205   0.37944
C          C       0.48319   0.85009   0.95331   0.05937
C          C       0.46685   0.81078   0.86987  -0.11954
C          C       0.39998   0.20353   0.71606   0.57551
C          C       0.51340   0.20139   0.66537  -0.02213
C          C       0.60985   0.18711   0.72155  -0.10710
C          C       0.71610   0.18773   0.67858  -0.08859
C          C       0.72740   0.20689   0.58004  -0.09972
C          C       0.63207   0.21838   0.52412  -0.09932
C          C       0.52544   0.21458   0.56541  -0.01021
C          C       0.42552   0.23282   0.50036   0.56429
C          C       0.15714   0.09335   0.85948   0.07880
C          C       0.09963   0.01645   0.89507  -0.16030
C          C       0.03368   0.03840   0.98123   0.10497
C          C       0.03442   0.13725   0.02957  -0.14659
C          C       0.09192   0.21194   0.98940   0.10331
C          C       0.08772   0.31625   0.66514   0.14118
C          C       0.05126   0.35690   0.57455  -0.19682
C          C       0.03568   0.47663   0.54338   0.15257
C          C       0.02239   0.55732   0.62665  -0.19802
C          C       0.10525   0.48705   0.68803   0.37917
C          C       0.14993   0.51693   0.54673   0.05905
C          C       0.18917   0.53323   0.63022  -0.11944
S          S       0.16040   0.83948   0.24997   0.98060
S          S       0.83960   0.16052   0.75003   0.98075
N          N       0.19149   0.15074   0.40441  -0.22231
N          N       0.38403   0.11751   0.22943  -0.29358
N          N       0.84914   0.80855   0.09541  -0.22236
N          N       0.88236   0.61604   0.27047  -0.29304
N          N       0.80852   0.84926   0.59558  -0.22249
N          N       0.61598   0.88249   0.77057  -0.29335
N          N       0.15087   0.19145   0.90459  -0.22208
N          N       0.11764   0.38397   0.72953  -0.29307
O          O       0.27107   0.37799   0.28891  -0.54376
O          O       0.14438   0.33948   0.19034  -0.55035
O          O       0.30367   0.32804   0.01939  -0.53540
O          O       0.17318   0.45132   0.92308  -0.55429
O          O       0.15569   0.93958   0.18526  -0.54781
O          O       0.62193   0.72898   0.21107  -0.54450
O          O       0.66042   0.85575   0.30954  -0.55034
O          O       0.67201   0.69696   0.48057  -0.53531
O          O       0.54875   0.82744   0.57670  -0.55460
O          O       0.06032   0.84443   0.31461  -0.54727
O          O       0.72894   0.62201   0.71109  -0.54382
O          O       0.85563   0.66052   0.80966  -0.55005
O          O       0.69633   0.67197   0.98061  -0.53515
O          O       0.82682   0.54868   0.07692  -0.55427
O          O       0.84432   0.06043   0.81473  -0.54806
O          O       0.37807   0.27102   0.78893  -0.54449
O          O       0.33958   0.14426   0.69046  -0.55058
O          O       0.32799   0.30304   0.51943  -0.53534
O          O       0.45125   0.17256   0.42330  -0.55449
O          O       0.93968   0.15557   0.68538  -0.54719

