data_crystal

_audit_creation_method 'AiiDA-DDEC plugin'

_cell_length_a        12.22697
_cell_length_b        12.70017
_cell_length_c        12.79458

_cell_angle_alpha     90.10289
_cell_angle_beta     89.92655
_cell_angle_gamma     114.30325

_symmetry_space_group_name_Hall 'P 1'
_symmetry_space_group_name_H-M  'P 1'

loop_
_symmetry_equiv_pos_as_xyz
 'x,y,z'

loop_
_atom_site_label
_atom_site_type_symbol
_atom_site_fract_x
_atom_site_fract_y
_atom_site_fract_z
_atom_site_charge
La         La      0.55777   0.86261   0.45149   1.86825
La         La      0.44162   0.63638   0.95197   1.87058
La         La      0.44223   0.13739   0.54850   1.86829
La         La      0.55837   0.36362   0.04803   1.87059
H          H       0.62099   0.67669   0.28575   0.36545
H          H       0.20999   0.57170   0.15788   0.13709
H          H       0.06417   0.75518   0.36458   0.14166
H          H       0.03432   0.45140   0.12667   0.13778
H          H       0.90840   0.67873   0.29709   0.13889
H          H       0.37828   0.82188   0.78268   0.36592
H          H       0.78963   0.92840   0.65763   0.13677
H          H       0.93554   0.74537   0.86346   0.14166
H          H       0.96558   0.04846   0.62615   0.13748
H          H       0.09128   0.82166   0.79647   0.13822
H          H       0.37901   0.32331   0.71425   0.36545
H          H       0.79001   0.42830   0.84212   0.13701
H          H       0.93583   0.24482   0.63542   0.14164
H          H       0.96568   0.54861   0.87332   0.13790
H          H       0.09160   0.32127   0.70291   0.13886
H          H       0.62172   0.17812   0.21732   0.36596
H          H       0.21037   0.07160   0.34237   0.13661
H          H       0.06445   0.25463   0.13653   0.14178
H          H       0.03442   0.95155   0.37385   0.13742
H          H       0.90872   0.17834   0.20353   0.13835
C          C       0.43912   0.67956   0.23676   0.60479
C          C       0.27935   0.89177   0.44821   0.54573
C          C       0.80868   0.31174   0.04691   0.55268
C          C       0.67449   0.56039   0.23460   0.56940
C          C       0.32629   0.69040   0.26984   0.11091
C          C       0.21567   0.63063   0.22151  -0.13659
C          C       0.11489   0.64672   0.25779   0.11495
C          C       0.13495   0.73254   0.33407  -0.14996
C          C       0.24965   0.79066   0.37565   0.12437
C          C       0.84739   0.41521   0.12105   0.13733
C          C       0.96568   0.47907   0.15372  -0.14520
C          C       0.99214   0.57651   0.21834   0.11561
C          C       0.89673   0.60522   0.24755  -0.14724
C          C       0.78198   0.53642   0.21237   0.10282
C          C       0.55995   0.81870   0.73570   0.60578
C          C       0.72013   0.60833   0.94666   0.54723
C          C       0.19135   0.18846   0.54713   0.55237
C          C       0.32526   0.93970   0.73361   0.57207
C          C       0.67317   0.80928   0.76929   0.11117
C          C       0.78390   0.86949   0.72111  -0.13781
C          C       0.88487   0.85385   0.75731   0.11769
C          C       0.86477   0.76800   0.83327  -0.15105
C          C       0.75014   0.70970   0.87481   0.12447
C          C       0.15273   0.08532   0.62134   0.13571
C          C       0.03429   0.02118   0.65348  -0.14255
C          C       0.00774   0.92398   0.71808   0.11352
C          C       0.10304   0.89519   0.74714  -0.14502
C          C       0.21786   0.96396   0.71210   0.10016
C          C       0.56088   0.32045   0.76324   0.60476
C          C       0.72064   0.10823   0.55179   0.54564
C          C       0.19132   0.68826   0.95309   0.55272
C          C       0.32551   0.43962   0.76540   0.56943
C          C       0.67371   0.30960   0.73016   0.11088
C          C       0.78432   0.36937   0.77848  -0.13650
C          C       0.88511   0.35328   0.74221   0.11491
C          C       0.86505   0.26746   0.66593  -0.15001
C          C       0.75035   0.20934   0.62435   0.12442
C          C       0.15261   0.58479   0.87895   0.13726
C          C       0.03431   0.52093   0.84627  -0.14524
C          C       0.00785   0.42349   0.78166   0.11570
C          C       0.10327   0.39479   0.75245  -0.14722
C          C       0.21802   0.46358   0.78763   0.10265
C          C       0.44004   0.18130   0.26430   0.60577
C          C       0.27987   0.39167   0.05334   0.54700
C          C       0.80865   0.81154   0.45287   0.55252
C          C       0.67473   0.06030   0.26639   0.57209
C          C       0.32682   0.19072   0.23071   0.11111
C          C       0.21610   0.13051   0.27889  -0.13772
C          C       0.11513   0.14615   0.24269   0.11769
C          C       0.13522   0.23200   0.16673  -0.15114
C          C       0.24986   0.29030   0.12519   0.12461
C          C       0.84726   0.91468   0.37866   0.13568
C          C       0.96570   0.97882   0.34651  -0.14269
C          C       0.99226   0.07602   0.28192   0.11361
C          C       0.89696   0.10481   0.25285  -0.14513
C          C       0.78213   0.03604   0.28789   0.10027
N          N       0.34248   0.76536   0.34907  -0.33375
N          N       0.75806   0.44383   0.15105  -0.34085
N          N       0.65708   0.73464   0.84849  -0.33328
N          N       0.24206   0.05691   0.65144  -0.33915
N          N       0.65751   0.23464   0.65093  -0.33366
N          N       0.24194   0.55617   0.84895  -0.34069
N          N       0.34291   0.26536   0.15151  -0.33328
N          N       0.75794   0.94310   0.34856  -0.33916
O          O       0.52216   0.70948   0.30697  -0.59154
O          O       0.44969   0.64626   0.14636  -0.58032
O          O       0.38145   0.92521   0.49695  -0.67593
O          O       0.21120   0.94240   0.45441  -0.51451
O          O       0.70023   0.28136   0.01075  -0.66081
O          O       0.87934   0.26703   0.02702  -0.51499
O          O       0.57198   0.48734   0.21158  -0.54591
O          O       0.69882   0.66167   0.27548  -0.42974
O          O       0.47617   0.78812   0.80526  -0.59223
O          O       0.54987   0.85141   0.64510  -0.58262
O          O       0.61815   0.57577   0.99551  -0.67713
O          O       0.78728   0.55655   0.95217  -0.51541
O          O       0.30095   0.22096   0.51318  -0.65908
O          O       0.11934   0.23090   0.52488  -0.51686
O          O       0.42771   0.01318   0.71112  -0.54714
O          O       0.30088   0.83772   0.77285  -0.43191
O          O       0.47784   0.29052   0.69303  -0.59141
O          O       0.55031   0.35374   0.85364  -0.58036
O          O       0.61855   0.07479   0.50305  -0.67581
O          O       0.78880   0.05760   0.54559  -0.51461
O          O       0.29977   0.71864   0.98925  -0.66092
O          O       0.12066   0.73297   0.97298  -0.51493
O          O       0.42802   0.51266   0.78842  -0.54594
O          O       0.30117   0.33833   0.72451  -0.42975
O          O       0.52382   0.21188   0.19474  -0.59219
O          O       0.45012   0.14859   0.35490  -0.58272
O          O       0.38185   0.42424   0.00448  -0.67707
O          O       0.21272   0.44345   0.04783  -0.51519
O          O       0.69905   0.77904   0.48682  -0.65911
O          O       0.88066   0.76910   0.47512  -0.51711
O          O       0.57229   0.98682   0.28888  -0.54705
O          O       0.69912   0.16228   0.22714  -0.43192

