data_crystal

_audit_creation_method 'AiiDA-DDEC plugin'

_cell_length_a        11.92034
_cell_length_b        11.84002
_cell_length_c        12.60334

_cell_angle_alpha     77.47102
_cell_angle_beta     88.00540
_cell_angle_gamma     62.89904

_symmetry_space_group_name_Hall 'P 1'
_symmetry_space_group_name_H-M  'P 1'

loop_
_symmetry_equiv_pos_as_xyz
 'x,y,z'

loop_
_atom_site_label
_atom_site_type_symbol
_atom_site_fract_x
_atom_site_fract_y
_atom_site_fract_z
_atom_site_charge
Cu         Cu      0.94920   0.39974   0.26356   0.84142
Cu         Cu      0.92857   0.92191   0.79484   0.82599
Cu         Cu      0.40515   0.91494   0.27605   0.83972
H          H       0.90676   0.66863   0.52303   0.11712
H          H       0.14173   0.86164   0.49953   0.10864
H          H       0.15641   0.64189   0.26466   0.12488
H          H       0.59219   0.22566   0.28809   0.12389
H          H       0.87900   0.19965   0.06471   0.11802
H          H       0.67290   0.98294   0.05790   0.11431
H          H       0.10128   0.12074   0.77847   0.15829
H          H       0.46174   0.07737   0.88558   0.14195
H          H       0.36697   0.14270   0.54292   0.15581
H          H       0.16308   0.32486   0.45205   0.12641
H          H       0.90980   0.17270   0.42686   0.13098
H          H       0.05012   0.04618   0.62452   0.13004
H          H       0.44703   0.95913   0.03224   0.11337
H          H       0.04998   0.14622   0.95018   0.15057
H          H       0.09795   0.07356   0.17382   0.13942
H          H       0.65782   0.96761   0.84015   0.11266
H          H       0.77385   0.14059   0.55899   0.13256
H          H       0.51843   0.22061   0.52681   0.15338
H          H       0.52344   0.67010   0.01785   0.15308
H          H       0.75390   0.69890   0.75080   0.16507
H          H       0.35435   0.84063   0.68889   0.12788
H          H       0.20776   0.80448   0.73603   0.11604
H          H       0.07085   0.81772   0.04758   0.13658
H          H       0.32262   0.74842   0.06951   0.15588
H          H       0.70987   0.50631   0.09564   0.11933
H          H       0.86670   0.71970   0.88275   0.12430
H          H       0.01896   0.58950   0.07660   0.13732
H          H       0.39923   0.80142   0.52733   0.11866
H          H       0.73545   0.82627   0.58948   0.13740
H          H       0.68108   0.87773   0.36698   0.13397
C          C       0.02215   0.65187   0.38675  -0.02590
C          C       0.97663   0.69405   0.48211  -0.10510
C          C       0.02122   0.76726   0.52458  -0.04945
C          C       0.10986   0.80091   0.46950  -0.11054
C          C       0.15869   0.75589   0.37576  -0.03375
C          C       0.11581   0.67966   0.33573  -0.09967
C          C       0.97111   0.57408   0.34408   0.54050
C          C       0.97610   0.80524   0.62948   0.56344
C          C       0.25853   0.78546   0.31829   0.56053
C          C       0.61908   0.10298   0.17537  -0.03483
C          C       0.64618   0.18568   0.22222  -0.09845
C          C       0.74417   0.21521   0.18578  -0.03788
C          C       0.80720   0.17145   0.09588  -0.10851
C          C       0.77903   0.09140   0.04687  -0.04168
C          C       0.68885   0.05271   0.09018  -0.10992
C          C       0.52100   0.06297   0.22066   0.54800
C          C       0.78475   0.29024   0.24429   0.53880
C          C       0.84706   0.04625   0.95082   0.55751
C          C       0.22385   0.14154   0.65275   0.20667
C          C       0.19307   0.11618   0.76063  -0.26262
C          C       0.28199   0.08814   0.84453   0.21345
C          C       0.39773   0.08805   0.82071  -0.28116
C          C       0.42834   0.10703   0.71244   0.20672
C          C       0.34225   0.13305   0.62717  -0.27768
C          C       0.11395   0.26625   0.47072   0.10778
C          C       0.98327   0.18522   0.46245  -0.00116
C          C       0.05048   0.12391   0.56137  -0.11469
C          C       0.34661   0.00091   0.04061   0.08374
C          C       0.13848   0.10012  -0.00023  -0.10348
C          C       0.16380   0.06018   0.11064  -0.00414
C          C       0.65550   0.02524   0.76029   0.09277
C          C       0.71180   0.11527   0.61239  -0.00547
C          C       0.58502   0.15544   0.59519  -0.09787
C          C       0.42677   0.74982   0.85666   0.20596
C          C       0.53172   0.69726   0.93106  -0.28062
C          C       0.64810   0.68210   0.89157   0.20837
C          C       0.66192   0.71575   0.78023  -0.26795
C          C       0.55471   0.77001   0.70786   0.21259
C          C       0.43722   0.79004   0.74569  -0.29268
C          C       0.20479   0.80076   0.82238   0.08585
C          C       0.13788   0.80421   0.98551  -0.00774
C          C       0.26409   0.76934   0.99668  -0.09511
C          C       0.77282   0.54717   0.06629   0.10682
C          C       0.85722   0.65787   0.95570  -0.09081
C          C       0.93217   0.59202   0.05067  -0.01166
C          C       0.48110   0.81776   0.51388   0.09504
C          C       0.65815   0.83043   0.54332  -0.11167
C          C       0.62925   0.85668   0.43379   0.01627
N          N       0.02296   0.27388   0.40754  -0.27709
N          N       0.13395   0.17544   0.56594   0.01366
N          N       0.25578   0.06284   0.95534   0.01573
N          N       0.29362  -0.00112   0.13456  -0.27751
N          N       0.54955   0.09777   0.69010   0.01841
N          N       0.75408   0.03447   0.71538  -0.28112
N          N       0.30612   0.76869   0.89174   0.02022
N          N       0.10217   0.82343   0.87665  -0.29935
N          N       0.75485   0.63010   0.96673   0.01621
N          N       0.87907   0.52291   0.11787  -0.27523
N          N       0.56333   0.80557   0.59434   0.01637
N          N       0.51850   0.84930   0.41662  -0.27888
O          O       0.04613   0.49523   0.28573  -0.57095
O          O       0.86489   0.58360   0.36731  -0.55527
O          O       0.91307   0.75848   0.68806  -0.58120
O          O       0.00624   0.88910   0.65630  -0.57878
O          O       0.28199   0.86858   0.35463  -0.59193
O          O       0.31145   0.73208   0.24292  -0.55920
O          O       0.53181   0.95649   0.19620  -0.57544
O          O       0.44046   0.12488   0.27965  -0.56761
O          O       0.71856   0.34937   0.31195  -0.54811
O          O       0.89425   0.28356   0.21709  -0.59825
O          O       0.90232   0.10367   0.89373  -0.58155
O          O       0.84512   0.94319   0.93136  -0.57669

