data_crystal

_audit_creation_method 'AiiDA-DDEC plugin'

_cell_length_a         8.08003
_cell_length_b         9.64376
_cell_length_c        24.73891

_cell_angle_alpha     90.00184
_cell_angle_beta     89.62660
_cell_angle_gamma     89.99774

_symmetry_space_group_name_Hall 'P 1'
_symmetry_space_group_name_H-M  'P 1'

loop_
_symmetry_equiv_pos_as_xyz
 'x,y,z'

loop_
_atom_site_label
_atom_site_type_symbol
_atom_site_fract_x
_atom_site_fract_y
_atom_site_fract_z
_atom_site_charge
Cd         Cd      0.74378   0.24615   0.75631   0.75168
Cd         Cd      0.25622   0.74614   0.74369   0.75154
Cd         Cd      0.25623   0.75386   0.24369   0.75171
Cd         Cd      0.74377   0.25385   0.25632   0.75151
H          H       0.67932   0.51537   0.68526   0.09220
H          H       0.52564   0.60656   0.60521   0.12876
H          H       0.31179   0.19872   0.58667   0.13406
H          H       0.47412   0.12453   0.66709   0.09268
H          H       0.02397   0.61661   0.39599   0.13018
H          H       0.86088   0.52794   0.31746   0.09308
H          H       0.96214   0.11947   0.35782   0.09400
H          H       0.12752   0.19036   0.43811   0.13767
H          H       0.32067   0.01536   0.81474   0.09215
H          H       0.47434   0.10656   0.89480   0.12886
H          H       0.68821   0.69871   0.91334   0.13405
H          H       0.52588   0.62451   0.83292   0.09239
H          H       0.97604   0.11661   0.10401   0.13015
H          H       0.13911   0.02794   0.18255   0.09308
H          H       0.03783   0.61948   0.14219   0.09404
H          H       0.87246   0.69036   0.06189   0.13769
H          H       0.32067   0.48464   0.31474   0.09209
H          H       0.47434   0.39345   0.39480   0.12881
H          H       0.68820   0.80128   0.41333   0.13409
H          H       0.52589   0.87547   0.33291   0.09263
H          H       0.97602   0.38340   0.60401   0.13015
H          H       0.13910   0.47206   0.68255   0.09313
H          H       0.03784   0.88053   0.64219   0.09408
H          H       0.87246   0.80964   0.56189   0.13767
H          H       0.67933   0.98465   0.18526   0.09215
H          H       0.52565   0.89345   0.10521   0.12876
H          H       0.31178   0.30129   0.08667   0.13405
H          H       0.47412   0.37549   0.16708   0.09250
H          H       0.02395   0.88340   0.89599   0.13011
H          H       0.86088   0.97206   0.81746   0.09300
H          H       0.96216   0.38053   0.85781   0.09399
H          H       0.12752   0.30965   0.93811   0.13775
C          C       0.59864   0.44859   0.66169   0.09678
C          C       0.51262   0.49910   0.61762  -0.15078
C          C       0.40953   0.40898   0.58892   0.04294
C          C       0.39344   0.27154   0.60675  -0.15156
C          C       0.48409   0.22982   0.65161   0.10385
C          C       0.32342   0.46248   0.54211   0.29120
C          C       0.18021   0.46320   0.46932   0.28350
C          C       0.08715   0.41051   0.42372   0.04100
C          C       0.01231   0.50590   0.38877  -0.15549
C          C       0.92180   0.45692   0.34522   0.09584
C          C       0.97725   0.22858   0.36801   0.10272
C          C       0.07001   0.26844   0.41270  -0.14793
C          C       0.09533   0.06445   0.71547   0.26989
C          C       0.38836   0.42987   0.78083   0.27147
C          C       0.40135   0.94858   0.83831   0.09697
C          C       0.48737  -0.00091   0.88239  -0.15084
C          C       0.59046   0.90897   0.91108   0.04310
C          C       0.60655   0.77153   0.89325  -0.15145
C          C       0.51591   0.72980   0.84840   0.10389
C          C       0.67657   0.96248   0.95790   0.29115
C          C       0.81978   0.96321   0.03069   0.28375
C          C       0.91284   0.91051   0.07628   0.04094
C          C       0.98769   0.00591   0.11123  -0.15541
C          C       0.07819   0.95692   0.15478   0.09586
C          C       0.02273   0.72858   0.13200   0.10259
C          C       0.92997   0.76845   0.08730  -0.14797
C          C       0.90467   0.56448   0.78454   0.26967
C          C       0.61158   0.92985   0.71917   0.27092
C          C       0.40135   0.55142   0.33831   0.09694
C          C       0.48737   0.50090   0.38239  -0.15097
C          C       0.59047   0.59102   0.41108   0.04309
C          C       0.60655   0.72846   0.39325  -0.15149
C          C       0.51591   0.77019   0.34839   0.10378
C          C       0.67657   0.53752   0.45790   0.29123
C          C       0.81978   0.53680   0.53069   0.28344
C          C       0.91284   0.58949   0.57628   0.04098
C          C       0.98768   0.49410   0.61123  -0.15544
C          C       0.07819   0.54308   0.65478   0.09579
C          C       0.02273   0.77142   0.63200   0.10261
C          C       0.92997   0.73156   0.58730  -0.14795
C          C       0.90467   0.93554   0.28454   0.26994
C          C       0.61162   0.57015   0.21917   0.27116
C          C       0.59865   0.05143   0.16169   0.09705
C          C       0.51263   0.00092   0.11761  -0.15086
C          C       0.40953   0.09103   0.08892   0.04286
C          C       0.39345   0.22847   0.10675  -0.15144
C          C       0.48409   0.27020   0.15161   0.10393
C          C       0.32342   0.03753   0.04210   0.29152
C          C       0.18021   0.03680   0.96932   0.28378
C          C       0.08715   0.08949   0.92372   0.04095
C          C       0.01231   0.99410   0.88877  -0.15547
C          C       0.92180   0.04308   0.84522   0.09583
C          C       0.97727   0.27142   0.86801   0.10276
C          C       0.07002   0.23156   0.91270  -0.14803
C          C       0.09534   0.43553   0.21548   0.26979
C          C       0.38840   0.07014   0.28082   0.27115
S          S      -0.00158   0.18876   0.68398  -0.30197
S          S       0.47253   0.31292   0.81985  -0.30097
S          S       0.00154   0.68880   0.81602  -0.30143
S          S       0.52747   0.81289   0.68017  -0.30058
S          S       0.00159   0.81126   0.31604  -0.30185
S          S       0.52748   0.68709   0.18016  -0.30067
S          S      -0.00152   0.31117   0.18401  -0.30184
S          S       0.47251   0.18711   0.31984  -0.30066
N          N       0.58704   0.31570   0.67805  -0.22199
N          N       0.31309   0.59218   0.52625  -0.23778
N          N       0.22021   0.59270   0.47928  -0.23453
N          N       0.90307   0.32053   0.33501  -0.22083
N          N       0.16816   0.97448   0.73782  -0.48549
N          N       0.32695   0.51451   0.75248  -0.47856
N          N       0.41296   0.81568   0.82196  -0.22216
N          N       0.68690   0.09217   0.97375  -0.23778
N          N       0.77979   0.09270   0.02073  -0.23442
N          N       0.09691   0.82053   0.16500  -0.22076
N          N       0.83181   0.47447   0.76218  -0.48571
N          N       0.67301   0.01456   0.74753  -0.47863
N          N       0.41296   0.68431   0.32196  -0.22204
N          N       0.68690   0.40783   0.47375  -0.23793
N          N       0.77978   0.40730   0.52073  -0.23436
N          N       0.09691   0.67947   0.66499  -0.22075
N          N       0.83180   0.02550   0.26219  -0.48562
N          N       0.67306   0.48546   0.24752  -0.47868
N          N       0.58704   0.18432   0.17804  -0.22216
N          N       0.31309   0.90783   0.02625  -0.23792
N          N       0.22020   0.90730   0.97928  -0.23472
N          N       0.90308   0.17948   0.83501  -0.22079
N          N       0.16816   0.52554   0.23782  -0.48554
N          N       0.32700   0.98546   0.25247  -0.47860
O          O       0.24149   0.37416   0.50777  -0.16551
O          O       0.75849   0.87416   0.99224  -0.16564
O          O       0.75851   0.62584   0.49223  -0.16554
O          O       0.24152   0.12585   0.00777  -0.16554

