data_crystal

_audit_creation_method 'AiiDA-DDEC plugin'

_cell_length_a        14.10104
_cell_length_b        14.09062
_cell_length_c        19.74315

_cell_angle_alpha     90.00000
_cell_angle_beta     90.00000
_cell_angle_gamma     90.09354

_symmetry_space_group_name_Hall 'P 1'
_symmetry_space_group_name_H-M  'P 1'

loop_
_symmetry_equiv_pos_as_xyz
 'x,y,z'

loop_
_atom_site_label
_atom_site_type_symbol
_atom_site_fract_x
_atom_site_fract_y
_atom_site_fract_z
_atom_site_charge
Cu         Cu      0.50000   0.49999  -0.00052   0.63635
Cu         Cu     -0.00000  -0.00000   0.50062   0.63560
Cu         Cu      0.00004   0.00003  -0.00161   0.25978
Cu         Cu      0.50001   0.49999   0.50123   0.25688
H          H       0.39917   0.33731   0.22760   0.12367
H          H       0.30217   0.24397   0.13171   0.12452
H          H       0.15854   0.32064   0.07174   0.12923
H          H       0.04495   0.18440   0.07499   0.08939
H          H       0.65283   0.50548   0.26221   0.12603
H          H       0.64679   0.50424   0.38786   0.08903
H          H       0.60083   0.66268   0.22759   0.12367
H          H       0.69783   0.75602   0.13171   0.12451
H          H       0.84146   0.67936   0.07174   0.12927
H          H       0.95506   0.81559   0.07498   0.08944
H          H       0.34717   0.49452   0.26221   0.12604
H          H       0.35321   0.49576   0.38786   0.08907
H          H       0.16242   0.89958   0.72879   0.12302
H          H       0.25764   0.80477   0.63244   0.12470
H          H       0.17564   0.66169   0.57221   0.12869
H          H       0.29883   0.53466   0.56627   0.09096
H          H       0.99572   0.15305   0.76342   0.12674
H          H      -0.00234   0.14725   0.88877   0.09042
H          H       0.83758   0.10041   0.72879   0.12316
H          H       0.74235   0.19522   0.63244   0.12456
H          H       0.82436   0.33830   0.57221   0.12859
H          H       0.70117   0.46534   0.56627   0.09077
H          H       0.00429   0.84695   0.76342   0.12702
H          H       0.00232   0.85275   0.88877   0.09060
H          H       0.10041   0.83750   0.27241   0.12292
H          H       0.19747   0.74423   0.36828   0.12483
H          H       0.34130   0.82116   0.42824   0.12873
H          H       0.45469   0.68511   0.42496   0.08983
H          H       0.84718   0.00516   0.23819   0.12586
H          H       0.85322   0.00405   0.11250   0.08851
H          H       0.89959   0.16250   0.27241   0.12280
H          H       0.80252   0.25577   0.36828   0.12464
H          H       0.65870   0.17884   0.42824   0.12880
H          H       0.54531   0.31488   0.42496   0.08986
H          H       0.15282   0.99484   0.23819   0.12586
H          H       0.14678   0.99594   0.11250   0.08860
H          H       0.33737   0.39908   0.77110   0.12284
H          H       0.24203   0.30436   0.86756   0.12433
H          H       0.32410   0.16150   0.92786   0.12851
H          H       0.20064   0.03423   0.93371   0.09084
H          H       0.50451   0.65306   0.73647   0.12667
H          H       0.50250   0.64718   0.61108   0.08737
H          H       0.66263   0.60091   0.77110   0.12269
H          H       0.75797   0.69563   0.86756   0.12398
H          H       0.67590   0.83849   0.92786   0.12849
H          H       0.79938   0.96576   0.93371   0.09048
H          H       0.49549   0.34693   0.73647   0.12690
H          H       0.49750   0.35281   0.61108   0.08747
C          C       0.44365   0.43191   0.14151   0.19492
C          C       0.39490   0.35464   0.17433  -0.20976
C          C       0.34558   0.30675   0.12522  -0.19857
C          C       0.36441   0.35398   0.06218   0.16217
C          C       0.17073   0.25816   0.04060  -0.18310
C          C       0.10700   0.18279   0.04214   0.06326
C          C       0.58473   0.50391   0.28804  -0.19274
C          C       0.58174   0.50329   0.35818   0.05421
C          C       0.55635   0.56809   0.14151   0.19489
C          C       0.60510   0.64536   0.17434  -0.20966
C          C       0.65443   0.69326   0.12522  -0.19881
C          C       0.63559   0.64602   0.06218   0.16214
C          C       0.82928   0.74183   0.04060  -0.18315
C          C       0.89301   0.81720   0.04214   0.06336
C          C       0.41528   0.49609   0.28804  -0.19281
C          C       0.41826   0.49671   0.35818   0.05423
C          C       0.06860   0.94432   0.64249   0.19586
C          C       0.14583   0.89587   0.67538  -0.21148
C          C       0.19462   0.84768   0.62616  -0.19777
C          C       0.14797   0.86691   0.56305   0.15842
C          C       0.23752   0.67031   0.53991  -0.18488
C          C       0.30544   0.59914   0.53621   0.06499
C          C       0.99682   0.08479   0.78917  -0.18953
C          C      -0.00215   0.08196   0.85930   0.04916
C          C       0.93140   0.05568   0.64249   0.19609
C          C       0.85416   0.10412   0.67537  -0.21162
C          C       0.80538   0.15230   0.62616  -0.19745
C          C       0.85203   0.13308   0.56306   0.15824
C          C       0.76248   0.32968   0.53990  -0.18471
C          C       0.69457   0.40085   0.53621   0.06494
C          C       0.00319   0.91521   0.78917  -0.18955
C          C       0.00214   0.91805   0.85930   0.04941
C          C       0.05614   0.93185   0.35863   0.19577
C          C       0.10475   0.85472   0.32569  -0.20842
C          C       0.15409   0.80688   0.37475  -0.19868
C          C       0.13535   0.85401   0.43782   0.16121
C          C       0.32893   0.75857   0.45928  -0.18459
C          C       0.39263   0.68337   0.45780   0.06386
C          C       0.91525   0.00372   0.21230  -0.19159
C          C       0.91827   0.00316   0.14216   0.05446
C          C       0.94386   0.06815   0.35863   0.19582
C          C       0.89525   0.14528   0.32570  -0.20828
C          C       0.84590   0.19311   0.37475  -0.19886
C          C       0.86465   0.14599   0.43782   0.16094
C          C       0.67107   0.24142   0.45927  -0.18424
C          C       0.60738   0.31663   0.45780   0.06399
C          C       0.08475   0.99628   0.21230  -0.19166
C          C       0.08173   0.99684   0.14216   0.05444
C          C       0.43132   0.44419   0.85739   0.19492
C          C       0.35399   0.39556   0.82451  -0.20976
C          C       0.30512   0.34737   0.87379  -0.19869
C          C       0.35186   0.36675   0.93688   0.16065
C          C       0.26209   0.17007   0.96002  -0.18277
C          C       0.19416   0.09871   0.96376   0.06437
C          C       0.50329   0.58479   0.71072  -0.18954
C          C       0.50224   0.58193   0.64057   0.05225
C          C       0.56867   0.55581   0.85739   0.19496
C          C       0.64601   0.60443   0.82452  -0.20962
C          C       0.69487   0.65262   0.87380  -0.19884
C          C       0.64813   0.63325   0.93687   0.16023
C          C       0.73791   0.82992   0.96002  -0.18256
C          C       0.80585   0.90128   0.96376   0.06435
C          C       0.49670   0.41520   0.71072  -0.18950
C          C       0.49775   0.41806   0.64057   0.05256
C          C       0.32526   0.32799  -0.00049  -0.08359
C          C       0.25217   0.25245  -0.00033   0.13424
C          C       0.67474   0.67201  -0.00048  -0.08362
C          C       0.74784   0.74755  -0.00032   0.13453
C          C       0.17453   0.82811   0.50045  -0.08197
C          C       0.24753   0.75269   0.50025   0.13695
C          C       0.82547   0.17188   0.50045  -0.08191
C          C       0.75247   0.24730   0.50026   0.13681
C          C       0.50000   0.50000   0.17558  -0.13078
C          C       0.50000   0.50000   0.24985   0.13568
C          C      -0.00000   0.00000   0.67656  -0.13413
C          C      -0.00001  -0.00000   0.75085   0.13377
C          C      -0.00000  -0.00000   0.32465  -0.13325
C          C      -0.00000  -0.00000   0.25042   0.13483
C          C       0.50000   0.50000   0.82332  -0.13362
C          C       0.50000   0.50000   0.74903   0.13353
N          N       0.42692   0.42917   0.07267  -0.38938
N          N       0.57308   0.57083   0.07267  -0.38926
N          N       0.07214   0.92842   0.57357  -0.38749
N          N       0.92786   0.07158   0.57357  -0.38743
N          N       0.07287   0.92904   0.42744  -0.38888
N          N       0.92713   0.07095   0.42744  -0.38856
N          N       0.42780   0.42833   0.92631  -0.38808
N          N       0.57219   0.57167   0.92631  -0.38759
N          N       0.11796   0.10297   0.00510  -0.23529
N          N       0.88206   0.89701   0.00510  -0.23568
N          N       0.38168   0.60364   0.49494  -0.23644
N          N       0.61832   0.39636   0.49494  -0.23677
N          N       0.50000   0.50000   0.39439  -0.23608
N          N      -0.00001   0.00000   0.89569  -0.22787
N          N      -0.00000   0.00000   0.10597  -0.23756
N          N       0.50000   0.50000   0.60414  -0.22650

