data_crystal

_audit_creation_method 'AiiDA-DDEC plugin'

_cell_length_a         9.50187
_cell_length_b        12.21869
_cell_length_c        15.91993

_cell_angle_alpha     88.55518
_cell_angle_beta     74.62456
_cell_angle_gamma     69.95823

_symmetry_space_group_name_Hall 'P 1'
_symmetry_space_group_name_H-M  'P 1'

loop_
_symmetry_equiv_pos_as_xyz
 'x,y,z'

loop_
_atom_site_label
_atom_site_type_symbol
_atom_site_fract_x
_atom_site_fract_y
_atom_site_fract_z
_atom_site_charge
Nd         Nd      0.29459   0.97627   0.01900   2.07119
Nd         Nd      0.70541   0.02373   0.98100   2.07126
H          H       0.99619   0.80734   0.04523   0.37186
H          H       0.34237   0.28130   0.51653   0.11196
H          H       0.16500   0.70935   0.51791   0.10899
H          H       0.27652   0.74944   0.38352   0.11251
H          H       0.21612   0.85584   0.25537   0.12798
H          H       0.03275   0.60100   0.19415   0.12010
H          H       0.08469   0.49779   0.32388   0.10394
H          H       0.47207   0.39526   0.27634   0.10594
H          H       0.50661   0.25586   0.15564   0.11766
H          H       0.14687   0.14498   0.31693   0.12106
H          H       0.12047   0.27900   0.44100   0.10627
H          H       0.21786   0.24699   0.64855   0.10743
H          H       0.27087   0.13702   0.77633   0.11593
H          H       0.49008   0.36831   0.83500   0.11907
H          H       0.43230   0.48197   0.70928   0.09868
H          H       0.04776   0.55975   0.75684   0.10970
H          H       0.98468   0.69343   0.88688   0.12201
H          H       0.27565   0.87254   0.73865   0.11758
H          H       0.33048   0.74419   0.60608   0.10967
H          H       0.00380   0.19266   0.95477   0.37175
H          H       0.65762   0.71870   0.48347   0.11204
H          H       0.83499   0.29065   0.48209   0.10899
H          H       0.72348   0.25055   0.61648   0.11269
H          H       0.78387   0.14416   0.74463   0.12809
H          H       0.96724   0.39900   0.80585   0.11986
H          H       0.91530   0.50221   0.67612   0.10384
H          H       0.52792   0.60474   0.72366   0.10605
H          H       0.49338   0.74414   0.84436   0.11771
H          H       0.85313   0.85502   0.68307   0.12091
H          H       0.87952   0.72100   0.55900   0.10633
H          H       0.78213   0.75301   0.35145   0.10727
H          H       0.72912   0.86298   0.22367   0.11584
H          H       0.50991   0.63169   0.16499   0.11924
H          H       0.56769   0.51803   0.29071   0.09876
H          H       0.95224   0.44025   0.24316   0.10953
H          H       0.01531   0.30657   0.11311   0.12197
H          H       0.72434   0.12746   0.26135   0.11778
H          H       0.66951   0.25581   0.39392   0.10965
C          C       0.22504   0.55062   0.43974   0.02108
C          C       0.27205   0.42722   0.44137   0.02957
C          C       0.30028   0.37618   0.51775  -0.17898
C          C       0.28244   0.43993   0.59435   0.03097
C          C       0.23192   0.56350   0.59370   0.02470
C          C       0.20796   0.61444   0.51636  -0.17610
C          C       0.18699   0.61432   0.36348   0.08079
C          C       0.21916   0.71800   0.34385  -0.14194
C          C       0.18687   0.77778   0.27170  -0.07312
C          C       0.12105   0.73495   0.21663  -0.06594
C          C       0.08605   0.63285   0.23608  -0.08739
C          C       0.11688   0.57451   0.30876  -0.13937
C          C       0.08977   0.79789   0.13944   0.61052
C          C       0.29388   0.34663   0.36692   0.07597
C          C       0.40126   0.34020   0.28573  -0.13590
C          C       0.42021   0.26253   0.21758  -0.08102
C          C       0.32798   0.19210   0.22875  -0.04299
C          C       0.22024   0.19798   0.30984  -0.08594
C          C       0.20552   0.27287   0.37854  -0.14844
C          C       0.33676   0.11363   0.15611   0.60938
C          C       0.31864   0.37432   0.67008   0.06115
C          C       0.27849   0.27374   0.68867  -0.14175
C          C       0.30729   0.21197   0.76045  -0.09631
C          C       0.38200   0.24651   0.81434  -0.03185
C          C       0.42788   0.34377   0.79475  -0.09199
C          C       0.39521   0.40724   0.72414  -0.13131
C          C       0.41485   0.17686   0.88982   0.64169
C          C       0.19465   0.64207   0.67217   0.07218
C          C       0.09687   0.62865   0.75220  -0.13290
C          C       0.06167   0.70290   0.82529  -0.08235
C          C       0.12837   0.78985   0.82128  -0.04077
C          C       0.22343   0.80555   0.74164  -0.08284
C          C       0.25381   0.73363   0.66751  -0.14739
C          C       0.10333   0.85850   0.90329   0.64321
C          C       0.77495   0.44938   0.56026   0.02101
C          C       0.72794   0.57278   0.55863   0.02971
C          C       0.69971   0.62382   0.48224  -0.17925
C          C       0.71756   0.56007   0.40565   0.03103
C          C       0.76807   0.43650   0.40629   0.02467
C          C       0.79204   0.38556   0.48363  -0.17599
C          C       0.81301   0.38568   0.63652   0.08065
C          C       0.78083   0.28200   0.65615  -0.14169
C          C       0.81312   0.22222   0.72829  -0.07318
C          C       0.87894   0.26505   0.78336  -0.06601
C          C       0.91394   0.36714   0.76392  -0.08734
C          C       0.88311   0.42549   0.69123  -0.13940
C          C       0.91023   0.20211   0.86056   0.61066
C          C       0.70611   0.65337   0.63308   0.07606
C          C       0.59873   0.65980   0.71427  -0.13581
C          C       0.57978   0.73747   0.78242  -0.08104
C          C       0.67201   0.80790   0.77125  -0.04303
C          C       0.77975   0.80202   0.69015  -0.08607
C          C       0.79448   0.72713   0.62146  -0.14847
C          C       0.66323   0.88637   0.84389   0.60956
C          C       0.68136   0.62568   0.32992   0.06113
C          C       0.72150   0.72626   0.31133  -0.14180
C          C       0.69270   0.78803   0.23954  -0.09656
C          C       0.61799   0.75349   0.18565  -0.03154
C          C       0.57211   0.65623   0.20525  -0.09186
C          C       0.60478   0.59276   0.27586  -0.13132
C          C       0.58514   0.82313   0.11017   0.64144
C          C       0.80534   0.35792   0.32783   0.07226
C          C       0.90312   0.37135   0.24779  -0.13298
C          C       0.93832   0.29710   0.17470  -0.08218
C          C       0.87163   0.21015   0.17872  -0.04098
C          C       0.77656   0.19445   0.25835  -0.08286
C          C       0.74618   0.26637   0.33249  -0.14739
C          C       0.89666   0.14150   0.09670   0.64331
O          O       0.12592   0.88574   0.11865  -0.60579
O          O       0.01854   0.75496   0.09481  -0.45145
O          O       0.23295   0.06723   0.16629  -0.60359
O          O       0.44462   0.09567   0.08344  -0.74382
O          O       0.53559   0.17131   0.91273  -0.65147
O          O       0.31967   0.12536   0.92518  -0.66046
O          O       0.21389   0.88860   0.91280  -0.65124
O          O       0.97289   0.87793   0.96236  -0.67638
O          O       0.87407   0.11426   0.88135  -0.60573
O          O       0.98145   0.24503   0.90519  -0.45167
O          O       0.76704   0.93277   0.83370  -0.60386
O          O       0.55538   0.90433   0.91656  -0.74379
O          O       0.46440   0.82869   0.08727  -0.65108
O          O       0.68032   0.87464   0.07481  -0.66062
O          O       0.78610   0.11140   0.08720  -0.65102
O          O       0.02710   0.12206   0.03763  -0.67651

