data_crystal

_audit_creation_method 'AiiDA-DDEC plugin'

_cell_length_a        12.73625
_cell_length_b        13.41946
_cell_length_c        17.63504

_cell_angle_alpha     87.65331
_cell_angle_beta     68.75753
_cell_angle_gamma     61.61686

_symmetry_space_group_name_Hall 'P 1'
_symmetry_space_group_name_H-M  'P 1'

loop_
_symmetry_equiv_pos_as_xyz
 'x,y,z'

loop_
_atom_site_label
_atom_site_type_symbol
_atom_site_fract_x
_atom_site_fract_y
_atom_site_fract_z
_atom_site_charge
Cd         Cd      0.39149   0.74919   0.77403   0.75122
Cd         Cd      0.68177   0.65468   0.83869   0.73435
Cd         Cd      0.91491   0.75087   0.72615   0.75171
Cd         Cd      0.17533   0.84536   0.66112   0.73474
Cd         Cd      0.60852   0.25081   0.22597   0.75136
Cd         Cd      0.31824   0.34532   0.16131   0.73432
Cd         Cd      0.08510   0.24913   0.27385   0.75170
Cd         Cd      0.82468   0.15464   0.33888   0.73476
Cd         Cd      0.50000   0.00000   0.00000   0.86499
Cd         Cd      0.50000   0.50000   0.50000   0.86493
H          H       0.32953   0.64148   0.94166   0.12039
H          H       0.39198   0.51889   0.04378   0.08583
H          H       0.14652   0.39173   0.05836   0.08847
H          H       0.08257   0.50218   0.94957   0.12823
H          H       0.38641   0.34909   0.83656   0.13096
H          H       0.75063   0.22095   0.86386   0.14504
H          H       0.72184   0.05957   0.92365   0.10446
H          H       0.36597   0.18822   0.90413   0.10301
H          H       0.91263   0.85878   0.55844   0.12043
H          H       0.95447   0.98147   0.45642   0.08631
H          H       0.59642   0.10841   0.44174   0.08869
H          H       0.53404  -0.00204   0.55040   0.12739
H          H       0.57175   0.15110   0.66362   0.13103
H          H       0.83507   0.27887   0.63619   0.14599
H          H       0.70466   0.44020   0.57624   0.10400
H          H       0.45802   0.31196   0.59590   0.10335
H          H       0.67048   0.35852   0.05833   0.12025
H          H       0.60803   0.48111   0.95622   0.08560
H          H       0.85349   0.60827   0.94164   0.08862
H          H       0.91744   0.49782   0.05043   0.12837
H          H       0.61360   0.65091   0.16344   0.13109
H          H       0.24938   0.77905   0.13614   0.14478
H          H       0.27816   0.94043   0.07635   0.10428
H          H       0.63404   0.81178   0.09586   0.10328
H          H       0.08738   0.14122   0.44155   0.12035
H          H       0.04554   0.01853   0.54358   0.08611
H          H       0.40359   0.89159   0.55826   0.08889
H          H       0.46597   0.00204   0.44959   0.12758
H          H       0.42826   0.84890   0.33638   0.13117
H          H       0.16494   0.72113   0.36381   0.14577
H          H       0.29535   0.55980   0.42376   0.10397
H          H       0.54199   0.68804   0.40410   0.10355
C          C       0.15839   0.64729   0.87475   0.22719
C          C       0.19963   0.58189   0.93672   0.08564
C          C       0.28808   0.58604   0.96422  -0.15061
C          C       0.32310   0.51766   0.02186   0.08696
C          C       0.18617   0.44668   0.02995   0.08548
C          C       0.14921   0.50954   0.97070  -0.16869
C          C       0.57831   0.39721   0.81479   0.19286
C          C       0.56903   0.29897   0.84665   0.07961
C          C       0.46159   0.28691   0.85579  -0.15786
C          C       0.66486   0.21591   0.87113  -0.14643
C          C       0.64889   0.12655   0.90503   0.11017
C          C       0.45063   0.19738   0.89260   0.08886
C          C       0.68030   0.85276   0.62525   0.22803
C          C       0.71808   0.91828   0.56339   0.08454
C          C       0.83821   0.91427   0.53594  -0.15062
C          C       0.86236   0.98275   0.47833   0.08776
C          C       0.66249   0.05352   0.47023   0.08568
C          C       0.62923   0.99059   0.52945  -0.16703
C          C       0.78963   0.10301   0.68557   0.19263
C          C       0.71413   0.20123   0.65364   0.08135
C          C       0.60392   0.21326   0.64441  -0.15899
C          C       0.75146   0.28412   0.62895  -0.14881
C          C       0.68004   0.37333   0.59494   0.11234
C          C       0.54034   0.30255   0.60745   0.08839
C          C       0.84162   0.35270   0.12525   0.22702
C          C       0.80038   0.41810   0.06327   0.08551
C          C       0.71193   0.41396   0.03578  -0.15051
C          C       0.67690   0.48234   0.97814   0.08685
C          C       0.81384   0.55332   0.97005   0.08555
C          C       0.85080   0.49046   0.02929  -0.16849
C          C       0.42169   0.60278   0.18521   0.19283
C          C       0.43098   0.70103   0.15335   0.07965
C          C       0.53842   0.71309   0.14421  -0.15777
C          C       0.33515   0.78408   0.12887  -0.14646
C          C       0.35112   0.87345   0.09496   0.11005
C          C       0.54938   0.80262   0.10740   0.08882
C          C       0.31971   0.14724   0.37475   0.22813
C          C       0.28193   0.08172   0.43661   0.08446
C          C       0.16180   0.08572   0.46406  -0.15090
C          C       0.13765   0.01725   0.52167   0.08775
C          C       0.33752   0.94647   0.52976   0.08566
C          C       0.37078   0.00941   0.47055  -0.16683
C          C       0.21037   0.89699   0.31442   0.19262
C          C       0.28588   0.79877   0.34636   0.08132
C          C       0.39609   0.78674   0.35559  -0.15902
C          C       0.24855   0.71588   0.37105  -0.14893
C          C       0.31997   0.62666   0.40506   0.11220
C          C       0.45967   0.69744   0.39255   0.08852
N          N       0.21317   0.70245   0.82264  -0.22479
N          N       0.14287   0.74506   0.77670  -0.07354
N          N       0.04936   0.71799   0.80034  -0.04168
N          N       0.05618   0.65696   0.86144  -0.23191
N          N       0.27339   0.44939   0.05503  -0.22550
N          N       0.66832   0.42328   0.81548  -0.23950
N          N       0.63557   0.52378   0.78896  -0.07557
N          N       0.52972   0.55648   0.77193  -0.07222
N          N       0.49212   0.47837   0.78753  -0.24460
N          N       0.54220   0.11876   0.91737  -0.24647
N          N       0.73816   0.79781   0.67733  -0.22650
N          N       0.66459   0.75515   0.72337  -0.07166
N          N       0.56764   0.78197   0.69980  -0.04226
N          N       0.57448   0.84291   0.63863  -0.23240
N          N       0.77749   0.05096   0.44519  -0.22647
N          N       0.90659   0.07675   0.68468  -0.23932
N          N       0.94802   0.97608   0.71093  -0.07617
N          N       0.85775   0.94349   0.72803  -0.07077
N          N       0.75734   0.02184   0.71273  -0.24566
N          N       0.57796   0.38115   0.58259  -0.24686
N          N       0.78684   0.29755   0.17735  -0.22508
N          N       0.85714   0.25494   0.22330  -0.07371
N          N       0.95065   0.28200   0.19966  -0.04122
N          N       0.94383   0.34304   0.13856  -0.23164
N          N       0.72662   0.55061   0.94497  -0.22564
N          N       0.33168   0.57672   0.18452  -0.23991
N          N       0.36444   0.47622   0.21104  -0.07578
N          N       0.47029   0.44352   0.22806  -0.07245
N          N       0.50788   0.52163   0.21246  -0.24386
N          N       0.45781   0.88124   0.08263  -0.24633
N          N       0.26185   0.20218   0.32267  -0.22706
N          N       0.33542   0.24485   0.27663  -0.07160
N          N       0.43237   0.21803   0.30020  -0.04198
N          N       0.42553   0.15708   0.36137  -0.23218
N          N       0.22252   0.94904   0.55481  -0.22650
N          N       0.09342   0.92325   0.31532  -0.23952
N          N       0.05199   0.02391   0.28906  -0.07646
N          N       0.14226   0.05650   0.27196  -0.07074
N          N       0.24267   0.97816   0.28727  -0.24521
N          N       0.42205   0.61885   0.41740  -0.24669
Cl         Cl      0.42393   0.78515   0.90838  -0.51048
Cl         Cl      0.43650   0.67538   0.60020  -0.52359
Cl         Cl      0.23474   0.94314   0.75267  -0.44887
Cl         Cl      0.11830   0.71450   0.59158  -0.51104
Cl         Cl      0.71157   0.82460   0.89971  -0.52303
Cl         Cl      0.93109   0.55702   0.74717  -0.44812
Cl         Cl      0.57608   0.21485   0.09161  -0.51038
Cl         Cl      0.56351   0.32462   0.39980  -0.52368
Cl         Cl      0.76527   0.05686   0.24733  -0.44886
Cl         Cl      0.88171   0.28550   0.40841  -0.51107
Cl         Cl      0.28844   0.17539   0.10029  -0.52304
Cl         Cl      0.06892   0.44298   0.25283  -0.44822

