data_crystal

_audit_creation_method 'AiiDA-DDEC plugin'

_cell_length_a        11.13003
_cell_length_b        11.30421
_cell_length_c        17.20184

_cell_angle_alpha     98.50475
_cell_angle_beta     108.82901
_cell_angle_gamma     91.11171

_symmetry_space_group_name_Hall 'P 1'
_symmetry_space_group_name_H-M  'P 1'

loop_
_symmetry_equiv_pos_as_xyz
 'x,y,z'

loop_
_atom_site_label
_atom_site_type_symbol
_atom_site_fract_x
_atom_site_fract_y
_atom_site_fract_z
_atom_site_charge
Cd         Cd      0.09867   0.22342   0.46510   1.07402
Cd         Cd      0.78923   0.28229   0.43784   1.05936
Cd         Cd      0.17036   0.79734   0.93905   1.05876
Cd         Cd      0.17859   0.87655   0.74868   1.20216
Cd         Cd      0.26043   0.09717   0.96297   1.09106
Cd         Cd      0.90134   0.77658   0.53490   1.07412
Cd         Cd      0.21078   0.71771   0.56216   1.05949
Cd         Cd      0.82965   0.20266   0.06095   1.05883
Cd         Cd      0.82142   0.12344   0.25132   1.20211
Cd         Cd      0.73958   0.90283   0.03703   1.09111
H          H       0.38649   0.38824   0.85991   0.14431
H          H       0.43130   0.54983   0.78653   0.12369
H          H       0.38955   0.49846   0.62934   0.12228
H          H       0.08251   0.38774   0.87180   0.14621
H          H       0.01225   0.18134   0.78689   0.14000
H          H       0.95904   0.15903   0.63003   0.14800
H          H       0.09943   0.35697   0.11106   0.12519
H          H       0.15067   0.37840   0.26803   0.12692
H          H       0.36599   0.32571   0.35330   0.14514
H          H       0.38691   0.03304   0.36685   0.14964
H          H       0.52978   0.96053   0.28703   0.13927
H          H       0.43779   0.92502   0.12743   0.14038
H          H       0.88455   0.06460   0.41114   0.38566
H          H       0.36671   0.90044   0.90567   0.37539
H          H       0.61351   0.61176   0.14009   0.14440
H          H       0.56870   0.45017   0.21346   0.12372
H          H       0.61045   0.50153   0.37066   0.12216
H          H       0.91749   0.61225   0.12819   0.14627
H          H       0.98776   0.81866   0.21311   0.14001
H          H       0.04096   0.84097   0.36997   0.14785
H          H       0.90058   0.64302   0.88894   0.12522
H          H       0.84933   0.62160   0.73196   0.12721
H          H       0.63402   0.67429   0.64670   0.14523
H          H       0.61310   0.96696   0.63315   0.14976
H          H       0.47023   0.03947   0.71296   0.13919
H          H       0.56221   0.07497   0.87256   0.14016
H          H       0.11546   0.93539   0.58885   0.38575
H          H       0.63330   0.09955   0.09433   0.37519
C          C       0.30512   0.23221   0.66243  -0.01731
C          C       0.25883   0.11128   0.60550   0.55511
C          C       0.32685   0.25655   0.74852  -0.10334
C          C       0.29467   0.16072   0.79201   0.59303
C          C       0.37274   0.37075   0.79352  -0.06988
C          C       0.39866   0.46003   0.75229  -0.11961
C          C       0.37541   0.43484   0.66751  -0.01122
C          C       0.03723   0.55099   0.62548   0.59345
C          C       0.03236   0.45380   0.67749   0.02817
C          C       0.06379   0.47126   0.76435  -0.08724
C          C       0.05591   0.37338   0.80424  -0.04057
C          C       0.01692   0.25931   0.75725  -0.10334
C          C       0.98619   0.24441   0.67159  -0.01453
C          C       0.10316   0.59534   0.81356   0.59346
C          C       0.55869   0.25662   0.29828   0.59137
C          C       0.42737   0.28109   0.24666  -0.09256
C          C       0.48167   0.23547   0.10826   0.55372
C          C       0.39414   0.26886   0.15963  -0.01383
C          C       0.18977   0.33686   0.15323  -0.00722
C          C       0.22053   0.34924   0.23868  -0.11143
C          C       0.33984   0.31991   0.28618  -0.06524
C          C       0.13617   0.07428   0.30394   0.59756
C          C       0.22261   0.02469   0.25722  -0.09325
C          C       0.35045   0.01062   0.29922  -0.04265
C          C       0.43012   0.97105   0.25412  -0.10812
C          C       0.38235   0.94977   0.16817  -0.01812
C          C       0.17526  -0.00194   0.17034   0.02160
C          C       0.03835   0.01192   0.11799   0.60024
C          C       0.69488   0.76779   0.33757  -0.01720
C          C       0.74118   0.88871   0.39449   0.55530
C          C       0.67316   0.74345   0.25147  -0.10350
C          C       0.70534   0.83927   0.20799   0.59307
C          C       0.62727   0.62924   0.20648  -0.06963
C          C       0.60134   0.53996   0.24771  -0.11964
C          C       0.62460   0.56515   0.33248  -0.01123
C          C       0.96277   0.44900   0.37452   0.59340
C          C       0.96765   0.54620   0.32250   0.02824
C          C       0.93622   0.52873   0.23565  -0.08731
C          C       0.94410   0.62662   0.19576  -0.04022
C          C       0.98309   0.74068   0.24275  -0.10328
C          C       0.01382   0.75558   0.32841  -0.01458
C          C       0.89685   0.40466   0.18644   0.59319
C          C       0.44131   0.74338   0.70172   0.59138
C          C       0.57264   0.71891   0.75333  -0.09264
C          C       0.51834   0.76453   0.89173   0.55385
C          C       0.60586   0.73113   0.84036  -0.01382
C          C       0.81024   0.66313   0.84676  -0.00698
C          C       0.77948   0.65076   0.76132  -0.11134
C          C       0.66017   0.68009   0.71382  -0.06506
C          C       0.86384   0.92572   0.69605   0.59740
C          C       0.77740   0.97531   0.74278  -0.09314
C          C       0.64955   0.98938   0.70077  -0.04261
C          C       0.56989   0.02895   0.74587  -0.10816
C          C       0.61765   0.05022   0.83182  -0.01831
C          C       0.82475   0.00193   0.82965   0.02162
C          C       0.96165   0.98807   0.88200   0.60029
N          N       0.32580   0.32441   0.62353   0.30401
N          N       0.99296   0.34110   0.63371   0.30920
N          N       0.27366   0.29433   0.11473   0.30800
N          N       0.25732   0.96393   0.12856   0.30241
N          N       0.67421   0.67559   0.37647   0.30399
N          N       0.00705   0.65890   0.36628   0.30922
N          N       0.72634   0.70566   0.88527   0.30783
N          N       0.74269   0.03606   0.87144   0.30235
O          O       0.29681   0.30889   0.54140  -0.48301
O          O       0.13736   0.09580   0.56664  -0.60491
O          O       0.33970   0.04053   0.59820  -0.50106
O          O       0.25415   0.06022   0.74613  -0.56456
O          O       0.31024   0.19118   0.86885  -0.56595
O          O       0.96556   0.32694   0.55095  -0.54958
O          O       0.93876   0.60763   0.60469  -0.53984
O          O       0.14014   0.56024   0.60949  -0.55353
O          O       0.11620   0.68006   0.77654  -0.57312
O          O       0.11651   0.60625   0.89182  -0.54092
O          O       0.89692   0.14337   0.39472  -0.89330
O          O       0.23644   0.28002   0.03235  -0.48413
O          O       0.46634   0.12557   0.07055  -0.59784
O          O       0.55726   0.31566   0.10582  -0.48913
O          O       0.63111   0.20845   0.26209  -0.56306
O          O       0.58709   0.29174   0.37775  -0.54316
O          O       0.27498   0.91646   0.89014  -0.89479
O          O       0.96463   0.91805   0.09425  -0.54729
O          O       0.01831   0.11870   0.10541  -0.56270
O          O       0.01789   0.05340   0.26556  -0.58481
O          O       0.19274   0.13095   0.37645  -0.53918
O          O       0.21278   0.95194   0.04513  -0.55333
O          O       0.70320   0.69110   0.45859  -0.48331
O          O       0.86265   0.90420   0.43335  -0.60475
O          O       0.66031   0.95947   0.40180  -0.50160
O          O       0.74586   0.93977   0.25387  -0.56479
O          O       0.68977   0.80882   0.13115  -0.56572
O          O       0.03445   0.67306   0.44905  -0.54975
O          O       0.06124   0.39236   0.39530  -0.53954
O          O       0.85987   0.43975   0.39051  -0.55377
O          O       0.88380   0.31993   0.22346  -0.57313
O          O       0.88349   0.39375   0.10817  -0.54059
O          O       0.10309   0.85662   0.60528  -0.89344
O          O       0.76357   0.71997   0.96764  -0.48424
O          O       0.53367   0.87443   0.92944  -0.59819
O          O       0.44275   0.68433   0.89418  -0.48932
O          O       0.36890   0.79155   0.73790  -0.56349
O          O       0.41291   0.70826   0.62225  -0.54278
O          O       0.72503   0.08354   0.10986  -0.89477
O          O       0.03538   0.08195   0.90575  -0.54737
O          O       0.98170   0.88130   0.89459  -0.56267
O          O       0.98212   0.94660   0.73444  -0.58470
O          O       0.80727   0.86904   0.62354  -0.53902
O          O       0.78723   0.04806   0.95487  -0.55341

