data_crystal

_audit_creation_method 'AiiDA-DDEC plugin'

_cell_length_a        10.07694
_cell_length_b         9.95257
_cell_length_c        24.41115

_cell_angle_alpha     95.52770
_cell_angle_beta     89.97228
_cell_angle_gamma     120.42403

_symmetry_space_group_name_Hall 'P 1'
_symmetry_space_group_name_H-M  'P 1'

loop_
_symmetry_equiv_pos_as_xyz
 'x,y,z'

loop_
_atom_site_label
_atom_site_type_symbol
_atom_site_fract_x
_atom_site_fract_y
_atom_site_fract_z
_atom_site_charge
U          U       0.03161   0.85536   0.14695   2.28044
U          U       0.16734   0.14329   0.35355   2.28517
U          U       0.97741   0.14336   0.85367   2.28149
U          U       0.82605   0.85740   0.64651   2.28107
H          H       0.48590   0.58752   0.09811   0.13308
H          H       0.40393   0.76855   0.05167   0.12202
H          H       0.69399   0.93255   0.16301   0.12873
H          H       0.44679   0.93412   0.16275   0.11523
H          H       0.38363   0.16845   0.01033   0.11232
H          H       0.76360   0.58568   0.96469   0.13754
H          H       0.89268   0.41477   0.40184   0.13297
H          H       0.63274   0.23080   0.44647   0.11739
H          H       0.75649   0.06075   0.33873   0.12992
H          H       0.51167   0.06646   0.33816   0.11485
H          H       0.21253   0.83025   0.48758   0.11261
H          H       0.17485   0.42189   0.53554   0.13692
H          H       0.52289   0.41700   0.90269   0.13359
H          H       0.59842   0.23057   0.94647   0.11791
H          H       0.30461   0.06071   0.83902   0.12935
H          H       0.55564   0.06745   0.83829   0.11575
H          H       0.61797   0.82978   0.98758   0.11284
H          H       0.24532   0.42079   0.03596   0.13693
H          H       0.10184   0.59077   0.59685   0.13201
H          H       0.36489   0.76869   0.55166   0.12181
H          H       0.23824   0.93004   0.66341   0.12949
H          H       0.48740   0.93246   0.66305   0.11600
H          H       0.78523   0.16846   0.51018   0.11291
H          H       0.82143   0.58523   0.46301   0.13743
C          C       0.77877   0.69553   0.07008   0.55571
C          C       0.25763   0.92484   0.07298   0.57731
C          C       0.49190   0.55002   0.05527  -0.08895
C          C       0.63676   0.59533   0.03439  -0.01787
C          C       0.38256   0.96486   0.03449  -0.02141
C          C       0.44800   0.86904   0.02840  -0.09150
C          C       0.65352   0.96205   0.20101  -0.07675
C          C       0.51602   0.96318   0.20086  -0.07850
C          C       0.43551   0.09550   0.00500  -0.08099
C          C       0.64949   0.54805   0.97954  -0.08501
C          C       0.07736   0.30770   0.42983   0.55662
C          C       0.32836   0.07635   0.42666   0.57200
C          C       0.93704   0.45385   0.44456  -0.08976
C          C       0.03688   0.40906   0.46566  -0.00935
C          C       0.41473   0.03462   0.46379  -0.01890
C          C       0.57607   0.12995   0.46960  -0.08792
C          C       0.68794   0.03282   0.30053  -0.07951
C          C       0.55148   0.03608   0.30017  -0.07626
C          C       0.33722   0.90330   0.49295  -0.08381
C          C       0.09781   0.45837   0.52036  -0.08849
C          C       0.23101   0.30835   0.93006   0.55646
C          C       0.74782   0.07589   0.92642   0.57255
C          C       0.51687   0.45498   0.94548  -0.08863
C          C       0.37181   0.40950   0.96634  -0.01115
C          C       0.61998   0.03407   0.96368  -0.01766
C          C       0.55427   0.12978   0.96964  -0.08892
C          C       0.34507   0.03233   0.80081  -0.07830
C          C       0.48493   0.03591   0.80041  -0.07814
C          C       0.56648   0.90306   0.99296  -0.08442
C          C       0.35921   0.45760   0.02108  -0.08828
C          C       0.91868   0.69907   0.56860   0.55785
C          C       0.66798   0.92610   0.57312   0.57580
C          C       0.05801   0.55197   0.55409  -0.08779
C          C       0.95876   0.59727   0.53295  -0.01762
C          C       0.58272   0.96514   0.53449  -0.02039
C          C       0.42153   0.86919   0.52839  -0.09007
C          C       0.30859   0.96017   0.70134  -0.07754
C          C       0.44737   0.96157   0.70118  -0.07937
C          C       0.66045   0.09558   0.50491  -0.08105
C          C       0.89789   0.54809   0.47824  -0.08607
C          C       0.88632   0.99417   0.25115   0.66817
C          C       0.31948   0.00487   0.24956   0.67875
C          C       0.73992   0.99655   0.25092  -0.03206
C          C       0.46474   0.00106   0.25033  -0.04019
C          C       0.10853   0.99386   0.75117   0.66843
C          C       0.68599   0.00434   0.75016   0.67881
C          C       0.25684   0.99538   0.75119  -0.03251
C          C       0.53670   0.00032   0.75063  -0.03822
Cl         Cl      0.93912   0.63275   0.20619  -0.53458
Cl         Cl      0.27629   0.37197   0.29682  -0.53157
Cl         Cl      0.09553   0.37211   0.79689  -0.53144
Cl         Cl      0.69846   0.63143   0.70438  -0.53405
O          O       0.25044   0.98706   0.20301  -0.66547
O          O       0.94752   0.99276   0.20541  -0.66277
O          O       0.20732   0.80084   0.09749  -0.58478
O          O       0.90824   0.71378   0.05585  -0.58923
O          O       0.77261   0.76547   0.11674  -0.62771
O          O       0.19963   0.01450   0.08313  -0.59667
O          O       0.26694   0.02655   0.29500  -0.66739
O          O       0.94658   0.99352   0.29746  -0.66353
O          O       0.40015   0.20152   0.40292  -0.57555
O          O       0.19651   0.29880   0.44149  -0.59204
O          O       0.99295   0.22781   0.38588  -0.62683
O          O       0.18017   0.98617   0.41696  -0.60337
O          O       0.75940   0.02663   0.79587  -0.66488
O          O       0.04707   0.99362   0.79737  -0.66483
O          O       0.80072   0.20097   0.90270  -0.57490
O          O       0.10160   0.29678   0.94152  -0.59292
O          O       0.23813   0.23122   0.88582  -0.62548
O          O       0.80664   0.98631   0.91688  -0.60359
O          O       0.73808   0.98608   0.70384  -0.66745
O          O       0.04665   0.99300   0.70539  -0.66218
O          O       0.59471   0.80247   0.59781  -0.58328
O          O       0.80527   0.71511   0.55552  -0.59051
O          O      -0.00147   0.77235   0.61433  -0.62883
O          O       0.81572   0.01634   0.58319  -0.59697

