data_crystal

_audit_creation_method 'AiiDA-DDEC plugin'

_cell_length_a        10.58727
_cell_length_b        10.90127
_cell_length_c        14.80106

_cell_angle_alpha     90.08901
_cell_angle_beta     108.50576
_cell_angle_gamma     89.96237

_symmetry_space_group_name_Hall 'P 1'
_symmetry_space_group_name_H-M  'P 1'

loop_
_symmetry_equiv_pos_as_xyz
 'x,y,z'

loop_
_atom_site_label
_atom_site_type_symbol
_atom_site_fract_x
_atom_site_fract_y
_atom_site_fract_z
_atom_site_charge
Cu         Cu      0.09321   0.08410   0.01062   0.87128
Cu         Cu      0.90749   0.58458   0.48961   0.86886
Cu         Cu      0.90679   0.91589   0.98938   0.87133
Cu         Cu      0.09251   0.41542   0.51039   0.86882
H          H       0.03649   0.72478   0.77113   0.14008
H          H       0.56471   0.46210   0.93264   0.11397
H          H       0.39778   0.54551   0.77114   0.12736
H          H       0.40405   0.81316   0.98862   0.12408
H          H       0.94606   0.64410   0.03967   0.09900
H          H       0.60772   0.85597   0.93486   0.10429
H          H       0.81280   0.44822   0.00850   0.12065
H          H       0.96330   0.22425   0.72882   0.13908
H          H       0.43535   0.96208   0.56741   0.11419
H          H       0.60193   0.04582   0.72870   0.12699
H          H       0.59591   0.31284   0.51140   0.12259
H          H       0.05388   0.14404   0.46026   0.09917
H          H       0.39211   0.35594   0.56506   0.10312
H          H       0.18720   0.94806   0.49148   0.12022
H          H       0.96351   0.27522   0.22887   0.14005
H          H       0.43529   0.53790   0.06736   0.11396
H          H       0.60222   0.45449   0.22886   0.12737
H          H       0.59595   0.18683   0.01138   0.12405
H          H       0.05394   0.35590   0.96033   0.09905
H          H       0.39228   0.14402   0.06514   0.10430
H          H       0.18720   0.55178   0.99150   0.12065
H          H       0.03670   0.77575   0.27118   0.13915
H          H       0.56464   0.03792   0.43259   0.11417
H          H       0.39807   0.95418   0.27130   0.12692
H          H       0.40409   0.68715   0.48860   0.12265
H          H       0.94612   0.85596   0.53974   0.09914
H          H       0.60789   0.64406   0.43494   0.10321
H          H       0.81280   0.05194   0.50852   0.12017
C          C       0.13902   0.86134   0.92958   0.58521
C          C       0.56505   0.66042   0.92875   0.01855
C          C       0.13561   0.57201   0.66826   0.57938
C          C       0.41911   0.67600   0.88604   0.05719
C          C       0.14291   0.71081   0.80377  -0.11025
C          C       0.21314   0.77545   0.88579  -0.01085
C          C       0.62576   0.54464   0.94822  -0.09020
C          C       0.34722   0.60955   0.80448  -0.14213
C          C       0.35104   0.76056   0.92542  -0.15117
C          C       0.21048   0.62971   0.76195  -0.01746
C          C       0.83814   0.64460   0.00814   0.09394
C          C       0.64856   0.76371   0.95002   0.04478
C          C       0.76364   0.53668   0.98978  -0.12784
C          C       0.86126   0.35942   0.57002   0.58404
C          C       0.43477   0.16042   0.57117   0.01635
C          C       0.86269   0.07187   0.83171   0.57856
C          C       0.58062   0.17607   0.61388   0.05639
C          C       0.85686   0.21033   0.69623  -0.10913
C          C       0.78681   0.27451   0.61405  -0.01288
C          C       0.37420   0.04457   0.55176  -0.08976
C          C       0.65235   0.10972   0.69533  -0.14312
C          C       0.64883   0.26023   0.57453  -0.14791
C          C       0.78901   0.12980   0.73804  -0.01719
C          C       0.16179   0.14448   0.49175   0.09443
C          C       0.35127   0.26367   0.54988   0.04562
C          C       0.23632   0.03655   0.51018  -0.12693
C          C       0.86098   0.13866   0.07043   0.58531
C          C       0.43495   0.33957   0.07125   0.01860
C          C       0.86439   0.42799   0.33174   0.57940
C          C       0.58089   0.32399   0.11396   0.05717
C          C       0.85709   0.28918   0.19623  -0.11021
C          C       0.78685   0.22455   0.11422  -0.01091
C          C       0.37424   0.45536   0.05178  -0.09027
C          C       0.65278   0.39045   0.19552  -0.14214
C          C       0.64896   0.23944   0.07459  -0.15107
C          C       0.78952   0.37029   0.23805  -0.01746
C          C       0.16186   0.35539   0.99186   0.09390
C          C       0.35144   0.23629   0.04998   0.04478
C          C       0.23636   0.46332   0.01022  -0.12782
C          C       0.13874   0.64058   0.42998   0.58396
C          C       0.56523   0.83958   0.42883   0.01633
C          C       0.13731   0.92813   0.16829   0.57857
C          C       0.41938   0.82393   0.38612   0.05633
C          C       0.14314   0.78967   0.30377  -0.10920
C          C       0.21319   0.72549   0.38595  -0.01286
C          C       0.62580   0.95542   0.44824  -0.08974
C          C       0.34765   0.89028   0.30467  -0.14309
C          C       0.35117   0.73977   0.42547  -0.14790
C          C       0.21099   0.87020   0.26196  -0.01719
C          C       0.83821   0.85552   0.50825   0.09438
C          C       0.64873   0.73633   0.45012   0.04558
C          C       0.76367   0.96345   0.48982  -0.12696
N          N       0.78169   0.75632   0.98733  -0.24179
N          N       0.21817   0.25622   0.51251  -0.24205
N          N       0.21831   0.24367   0.01267  -0.24179
N          N       0.78183   0.74378   0.48749  -0.24195
O          O       0.19460   0.96385   0.95926  -0.53294
O          O       0.02631   0.82344   0.93226  -0.55638
O          O       0.18836   0.47975   0.64098  -0.53117
O          O       0.02560   0.62377   0.62275  -0.56071
O          O       0.80604   0.46185   0.53997  -0.53748
O          O       0.97385   0.32084   0.56754  -0.55350
O          O       0.80704   0.98206   0.85930  -0.53287
O          O       0.97430   0.12104   0.87697  -0.56368
O          O       0.80540   0.03615   0.04074  -0.53293
O          O       0.97369   0.17656   0.06774  -0.55648
O          O       0.81164   0.52025   0.35902  -0.53122
O          O       0.97439   0.37623   0.37725  -0.56070
O          O       0.19396   0.53814   0.46003  -0.53740
O          O       0.02615   0.67916   0.43246  -0.55349
O          O       0.19296   0.01794   0.14070  -0.53291
O          O       0.02570   0.87895   0.12303  -0.56361

