data_crystal

_audit_creation_method 'AiiDA-DDEC plugin'

_cell_length_a        13.85479
_cell_length_b        13.89890
_cell_length_c        16.36991

_cell_angle_alpha     66.67361
_cell_angle_beta     66.63991
_cell_angle_gamma     71.51493

_symmetry_space_group_name_Hall 'P 1'
_symmetry_space_group_name_H-M  'P 1'

loop_
_symmetry_equiv_pos_as_xyz
 'x,y,z'

loop_
_atom_site_label
_atom_site_type_symbol
_atom_site_fract_x
_atom_site_fract_y
_atom_site_fract_z
_atom_site_charge
Sm         Sm      0.56681   0.84620   0.00014   1.93957
Sm         Sm      0.15392   0.43332   0.49968   1.93924
Sm         Sm      0.43778   0.15199   0.00400   1.93880
Sm         Sm      0.84719   0.56206   0.49639   1.93667
H          H       0.76126   0.65243   0.76586   0.14630
H          H       0.10129   0.53264   0.71743   0.14530
H          H       0.91112   0.64395   0.95510   0.14325
H          H       0.86683   0.92235   0.85672   0.14204
H          H       0.34497   0.23766   0.73629   0.14702
H          H       0.46420   0.89880   0.78447   0.14520
H          H       0.35804   0.08938   0.54422   0.14327
H          H       0.07832   0.13263   0.64351   0.14216
H          H       0.22880   0.34997   0.23215   0.14461
H          H       0.88857   0.46076   0.27673   0.14533
H          H       0.08843   0.35409   0.03801   0.14430
H          H       0.13940   0.07202   0.14657   0.14462
H          H       0.64646   0.77049   0.27031   0.14552
H          H       0.53985   0.11042   0.22228   0.14567
H          H       0.64719   0.91309   0.46095   0.14480
H          H       0.92634   0.86043   0.35497   0.14529
H          H       0.74126   0.25765   0.74985   0.14189
H          H       0.26366   0.73560   0.25120   0.14195
C          C       0.93807   0.56922   0.64738   0.64048
C          C       0.93162   0.58981   0.73254  -0.03900
C          C       0.82515   0.65155   0.86705  -0.02247
C          C       0.72178   0.70006   0.92412   0.56243
C          C       0.91656   0.62849   0.89330  -0.09718
C          C       0.79262   0.08903   0.81110  -0.03157
C          C       0.68356   0.07226   0.87766   0.65029
C          C       0.87859   0.00212   0.81051  -0.11224
C          C       0.83242   0.63320   0.78654  -0.06576
C          C       0.02375   0.56640   0.75831  -0.10463
C          C       0.01436   0.58708   0.83801   0.06103
C          C       0.42569   0.05978   0.85590   0.64426
C          C       0.40709   0.06790   0.76934  -0.03768
C          C       0.34804   0.17481   0.63345  -0.02301
C          C       0.30009   0.27805   0.57606   0.56120
C          C       0.37204   0.08386   0.60673  -0.09580
C          C       0.91108   0.20695   0.68825  -0.02970
C          C       0.92795   0.31559   0.62131   0.65033
C          C      -0.00187   0.12111   0.68942  -0.11231
C          C       0.36469   0.16708   0.71496  -0.06817
C          C       0.43147   0.97628   0.74305  -0.10588
C          C       0.41254   0.98618   0.66245   0.06164
C          C       0.04489   0.42983   0.35003   0.64783
C          C       0.05771   0.40828   0.26355  -0.04018
C          C       0.16941   0.34788   0.12925  -0.01899
C          C       0.27491   0.29961   0.07404   0.55803
C          C       0.07984   0.36958   0.10075  -0.09869
C          C       0.21355   0.90482   0.19067  -0.02701
C          C       0.32351   0.91990   0.12561   0.65548
C          C       0.12771   0.99178   0.19154  -0.11489
C          C       0.15881   0.36722   0.21036  -0.07027
C          C       0.96740   0.42939   0.23592  -0.10754
C          C       0.98025   0.40976   0.15486   0.06627
C          C       0.57058   0.95379   0.15002   0.65101
C          C       0.59091   0.94142   0.23696  -0.04343
C          C       0.65078   0.83073   0.37178  -0.01616
C          C       0.69855   0.72569   0.42782   0.55943
C          C       0.63061   0.92077   0.39894  -0.09814
C          C       0.09412   0.78632   0.31095  -0.03054
C          C       0.07969   0.67659   0.37592   0.65449
C          C       0.00689   0.87196   0.30993  -0.11530
C          C       0.63065   0.84065   0.29118  -0.07391
C          C       0.57069   0.03194   0.26360  -0.10341
C          C       0.59062   0.01977   0.34434   0.06446
C          C       0.80871   0.19094   0.74963  -0.06775
C          C       0.98004   0.02011   0.75012   0.05658
C          C       0.19671   0.80275   0.25085  -0.07236
C          C       0.02576   0.97338   0.25066   0.05668
N          N       0.11071   0.56344   0.86602   0.52606
N          N       0.43629   0.89037   0.63432   0.52765
N          N       0.88518   0.43306   0.12514   0.52338
N          N       0.56871   0.11520   0.37267   0.52240
N          N       0.07166   0.92869   0.75070   0.52495
N          N       0.93442   0.06513   0.25042   0.52470
O          O       0.67115   0.97542   0.92127  -0.68458
O          O       0.85232   0.59386   0.62640  -0.60991
O          O       0.71500   0.70417   0.00346  -0.59723
O          O       0.61025   0.15328   0.88764  -0.63700
O          O       0.02908   0.52840   0.59955  -0.69813
O          O       0.64160   0.74373   0.89255  -0.59759
O          O       0.19745   0.52784   0.81534  -0.31837
O          O       0.09777   0.58016   0.93919  -0.33721
O          O       0.05152   0.83849   0.79949  -0.32985
O          O       0.02508   0.32858   0.57839  -0.68451
O          O       0.39625   0.14324   0.88073  -0.61170
O          O       0.29589   0.28503   0.49667  -0.59697
O          O       0.84642   0.38777   0.61063  -0.63359
O          O       0.47011   0.96935   0.90104  -0.69685
O          O       0.25681   0.35795   0.60767  -0.59657
O          O       0.47148   0.80374   0.68514  -0.31971
O          O       0.41982   0.90368   0.56093  -0.33745
O          O       0.16249   0.94829   0.70245  -0.33063
O          O       0.34337   0.01432   0.09221  -0.69859
O          O       0.12807   0.41938   0.37021  -0.62892
O          O       0.28380   0.29042   0.99614  -0.58592
O          O       0.39049   0.83836   0.10726  -0.63519
O          O       0.94936   0.45832   0.39997  -0.67218
O          O       0.35425   0.26164   0.10670  -0.61333
O          O       0.79721   0.46631   0.17601  -0.31772
O          O       0.90014   0.41874   0.05039  -0.33774
O          O       0.95459   0.15475   0.19913  -0.33108
O          O       0.98488   0.65647   0.41130  -0.69996
O          O       0.58140   0.87078   0.12987  -0.62956
O          O       0.71523   0.72027   0.50155  -0.58766
O          O       0.16213   0.60950   0.39236  -0.63181
O          O       0.54284   0.04879   0.09945  -0.67352
O          O       0.72867   0.64320   0.40036  -0.61369
O          O       0.53795   0.20288   0.32021  -0.31812
O          O       0.58174   0.10070   0.44784  -0.33630
O          O       0.84392   0.04651   0.30140  -0.33078

