data_crystal

_audit_creation_method 'AiiDA-DDEC plugin'

_cell_length_a        10.69539
_cell_length_b        10.69548
_cell_length_c        21.97515

_cell_angle_alpha     89.56149
_cell_angle_beta     89.55835
_cell_angle_gamma     89.99410

_symmetry_space_group_name_Hall 'P 1'
_symmetry_space_group_name_H-M  'P 1'

loop_
_symmetry_equiv_pos_as_xyz
 'x,y,z'

loop_
_atom_site_label
_atom_site_type_symbol
_atom_site_fract_x
_atom_site_fract_y
_atom_site_fract_z
_atom_site_charge
Na         Na      0.61866   0.87498   0.48777   0.91616
Na         Na      0.12503   0.38133   0.01223   0.91618
Na         Na      0.38133   0.12502   0.51223   0.91619
Na         Na      0.87496   0.61866   0.98777   0.91616
Zn         Zn      0.59028   0.95305   0.62616   0.93174
Zn         Zn      0.04694   0.40971   0.87384   0.93161
Zn         Zn      0.40971   0.04695   0.37384   0.93157
Zn         Zn      0.95305   0.59028   0.12616   0.93162
H          H       0.80748   0.27660   0.34642   0.13934
H          H       0.99162   0.38337   0.39228   0.10193
H          H       0.01546   0.38717   0.50567   0.13348
H          H       0.74916   0.49050   0.54391   0.14495
H          H       0.78112   0.67016   0.71767   0.14410
H          H       0.92376   0.29600   0.69520   0.15963
H          H       0.72339   0.19252   0.15358   0.13932
H          H       0.61663   0.00838   0.10772   0.10331
H          H       0.61282   0.98454   0.99432   0.13362
H          H       0.50949   0.25083   0.95609   0.14470
H          H       0.32984   0.21888   0.78233   0.14439
H          H       0.70400   0.07623   0.80479   0.15963
H          H       0.19251   0.72340   0.65358   0.13925
H          H       0.00837   0.61663   0.60772   0.10203
H          H       0.98453   0.61282   0.49432   0.13362
H          H       0.25083   0.50950   0.45609   0.14476
H          H       0.21887   0.32984   0.28233   0.14419
H          H       0.07624   0.70400   0.30479   0.15974
H          H       0.27660   0.80748   0.84642   0.13939
H          H       0.38336   0.99162   0.89228   0.10202
H          H       0.38717   0.01546   0.00568   0.13351
H          H       0.49050   0.74916   0.04391   0.14480
H          H       0.67015   0.78112   0.21766   0.14416
H          H       0.29599   0.92377   0.19521   0.15965
C          C       0.74941   0.20957   0.49561  -0.10202
C          C       0.73389   0.21146   0.43197  -0.04167
C          C       0.82084   0.27599   0.39549  -0.07284
C          C       0.92282   0.33744   0.42142  -0.04854
C          C       0.93706   0.33988   0.48453  -0.19189
C          C       0.84917   0.27704   0.52061   0.22606
C          C       0.66178   0.14686   0.54000   0.59257
C          C       0.62432   0.14980   0.40250   0.56917
C          C       0.83908   0.38228   0.61587   0.27030
C          C       0.78140   0.48862   0.59075  -0.20040
C          C       0.76241   0.59268   0.62770  -0.00403
C          C       0.79820   0.58941   0.68899  -0.08118
C          C       0.85661   0.48267   0.71323  -0.00366
C          C       0.87744   0.37848   0.67690  -0.18301
C          C       0.70574   0.70975   0.60125   0.58671
C          C       0.89762   0.48236   0.77843   0.55246
C          C       0.79041   0.25059   0.00439  -0.10209
C          C       0.78853   0.26611   0.06803  -0.04179
C          C       0.72400   0.17916   0.10451  -0.07293
C          C       0.66256   0.07718   0.07857  -0.04992
C          C       0.66011   0.06294   0.01547  -0.19162
C          C       0.72295   0.15082   0.97938   0.22594
C          C       0.85312   0.33821   0.96000   0.59254
C          C       0.85019   0.37570   0.09750   0.56924
C          C       0.61771   0.16091   0.88412   0.27039
C          C       0.51137   0.21859   0.90925  -0.20055
C          C       0.40731   0.23759   0.87230  -0.00421
C          C       0.41059   0.20179   0.81101  -0.08107
C          C       0.51733   0.14338   0.78676  -0.00331
C          C       0.62152   0.12255   0.82310  -0.18316
C          C       0.29024   0.29426   0.89875   0.58700
C          C       0.51764   0.10236   0.72156   0.55186
C          C       0.25058   0.79042   0.50439  -0.10194
C          C       0.26610   0.78854   0.56802  -0.04179
C          C       0.17915   0.72401   0.60451  -0.07291
C          C       0.07717   0.66256   0.57857  -0.04874
C          C       0.06293   0.66011   0.51547  -0.19146
C          C       0.15082   0.72296   0.47938   0.22590
C          C       0.33821   0.85314   0.46000   0.59253
C          C       0.37567   0.85019   0.59750   0.56924
C          C       0.16092   0.61772   0.38413   0.27024
C          C       0.21859   0.51138   0.40925  -0.20052
C          C       0.23759   0.40732   0.37230  -0.00417
C          C       0.20179   0.41059   0.31101  -0.08105
C          C       0.14338   0.51733   0.28676  -0.00347
C          C       0.12256   0.62152   0.32310  -0.18305
C          C       0.29425   0.29025   0.39875   0.58687
C          C       0.10237   0.51764   0.22157   0.55211
C          C       0.20958   0.74941   0.99561  -0.10209
C          C       0.21146   0.73388   0.93197  -0.04196
C          C       0.27599   0.82084   0.89549  -0.07263
C          C       0.33743   0.92282   0.92143  -0.04876
C          C       0.33988   0.93706   0.98453  -0.19177
C          C       0.27704   0.84917   0.02062   0.22600
C          C       0.14687   0.66178   0.04000   0.59274
C          C       0.14980   0.62430   0.90250   0.56905
C          C       0.38228   0.83908   0.11587   0.27026
C          C       0.48862   0.78140   0.09075  -0.20039
C          C       0.59268   0.76241   0.12770  -0.00415
C          C       0.58940   0.79820   0.18899  -0.08134
C          C       0.48266   0.85662   0.21324  -0.00346
C          C       0.37847   0.87744   0.17690  -0.18287
C          C       0.70975   0.70574   0.10125   0.58677
C          C       0.48235   0.89763   0.27843   0.55181
O          O       0.56805   0.20605   0.55796  -0.51907
O          O       0.69446   0.03648   0.55775  -0.59464
O          O       0.55623   0.07286   0.43560  -0.69104
O          O       0.59763   0.17424   0.34853  -0.46812
O          O       0.85725   0.27387   0.58386  -0.15379
O          O       0.69327   0.80031   0.63909  -0.53020
O          O       0.67721   0.71203   0.54586  -0.61639
O          O       0.86394   0.56902   0.81270  -0.44716
O          O       0.96822   0.38949   0.79465  -0.51887
O          O       0.79394   0.43194   0.94204  -0.51881
O          O       0.96351   0.30553   0.94224  -0.59480
O          O       0.92715   0.44377   0.06439  -0.69106
O          O       0.82575   0.40244   0.15146  -0.46824
O          O       0.72612   0.14274   0.91613  -0.15385
O          O       0.19968   0.30672   0.86091  -0.52975
O          O       0.28796   0.32280   0.95414  -0.61706
O          O       0.43097   0.13603   0.68730  -0.44657
O          O       0.61051   0.03177   0.70534  -0.51898
O          O       0.43194   0.79395   0.44204  -0.51912
O          O       0.30553   0.96352   0.44224  -0.59450
O          O       0.44377   0.92714   0.56440  -0.69104
O          O       0.40237   0.82576   0.65147  -0.46833
O          O       0.14274   0.72613   0.41613  -0.15366
O          O       0.30673   0.19968   0.36090  -0.52988
O          O       0.32278   0.28797   0.45414  -0.61685
O          O       0.13605   0.43098   0.18729  -0.44687
O          O       0.03177   0.61050   0.20534  -0.51887
O          O       0.20605   0.56806   0.05796  -0.51915
O          O       0.03649   0.69446   0.05776  -0.59472
O          O       0.07284   0.55623   0.93561  -0.69092
O          O       0.17424   0.59756   0.84853  -0.46796
O          O       0.27387   0.85726   0.08387  -0.15382
O          O       0.80031   0.69328   0.13909  -0.53001
O          O       0.71203   0.67719   0.04586  -0.61653
O          O       0.56902   0.86397   0.31270  -0.44687
O          O       0.38948   0.96823   0.29466  -0.51857

