data_crystal

_audit_creation_method 'AiiDA-DDEC plugin'

_cell_length_a        10.37809
_cell_length_b        12.49784
_cell_length_c        20.27215

_cell_angle_alpha     90.00404
_cell_angle_beta     90.00045
_cell_angle_gamma     89.88583

_symmetry_space_group_name_Hall 'P 1'
_symmetry_space_group_name_H-M  'P 1'

loop_
_symmetry_equiv_pos_as_xyz
 'x,y,z'

loop_
_atom_site_label
_atom_site_type_symbol
_atom_site_fract_x
_atom_site_fract_y
_atom_site_fract_z
_atom_site_charge
Zn         Zn      0.13352   0.67897   0.99159   0.94438
Zn         Zn      0.43642   0.60727   0.98855   0.94792
Zn         Zn      0.36614   0.32109   0.49156   0.94408
Zn         Zn      0.06356   0.39288   0.48852   0.94783
Zn         Zn      0.86662   0.17621   0.50845   0.94372
Zn         Zn      0.56545   0.10698   0.51176   0.94478
Zn         Zn      0.63362   0.82378   0.00841   0.94364
Zn         Zn      0.93446   0.89521   0.01153   0.94644
H          H       0.46694   0.48573   0.79243   0.10961
H          H       0.04163   0.51971   0.68041   0.12447
H          H       0.44505   0.43760   0.67412   0.11812
H          H       0.22368   0.97187   0.00718   0.07686
H          H       0.08706   0.59122   0.86358   0.30985
H          H       0.96181   0.52618   0.81053   0.31139
H          H       0.00144   0.65028   0.79115   0.31949
H          H       0.12155   0.94225   0.12120   0.14968
H          H       0.29230   0.96045   0.12183   0.11708
H          H       0.22476   0.82933   0.13128   0.13728
H          H       0.03299   0.51422   0.29243   0.10941
H          H       0.45849   0.48026   0.18046   0.12462
H          H       0.05500   0.56245   0.17417   0.11778
H          H       0.27631   0.02814   0.50742   0.07553
H          H       0.41321   0.40871   0.36348   0.31037
H          H       0.53819   0.47380   0.31054   0.31188
H          H       0.49858   0.34962   0.29115   0.32028
H          H       0.37891   0.05750   0.62137   0.15006
H          H       0.20821   0.03932   0.62211   0.11661
H          H       0.27568   0.17040   0.63166   0.13736
H          H       0.53389   0.98491   0.70724   0.10971
H          H       0.95864   0.02049   0.81971   0.12620
H          H       0.55585   0.93743   0.82581   0.11858
H          H       0.77553   0.46928   0.49313   0.07677
H          H       0.91416   0.09021   0.63673   0.31023
H          H       0.03903   0.02650   0.68937   0.31333
H          H      -0.00194   0.15064   0.70866   0.32187
H          H       0.87826   0.44171   0.37942   0.14992
H          H       0.70744   0.45994   0.37853   0.11716
H          H       0.77566   0.32910   0.36803   0.13736
H          H       0.96600   0.01498   0.20728   0.11019
H          H       0.54132   0.97989   0.31980   0.12513
H          H       0.94417   0.06256   0.32585   0.11883
H          H       0.72481   0.53089   0.99324   0.07631
H          H       0.58624   0.90979   0.13661   0.31012
H          H       0.46102   0.97345   0.18942   0.31243
H          H       0.50183   0.84933   0.20873   0.32131
H          H       0.62195   0.55832   0.87948   0.14930
H          H       0.79274   0.54009   0.87857   0.11744
H          H       0.72449   0.67094   0.86815   0.13713
C          C       0.26708   0.53044   0.80550  -0.18857
C          C       0.24186   0.47410   0.66868  -0.07243
C          C       0.14726   0.53923   0.77065   0.17546
C          C       0.37452   0.49267   0.76764  -0.10344
C          C       0.13425   0.51248   0.70519  -0.22226
C          C       0.36237   0.46587   0.70213  -0.11401
C          C       0.28101   0.55821   0.87368   0.51923
C          C       0.34279   0.83366   0.01241   0.58255
C          C       0.21826   0.89260   0.03103   0.15080
C          C       0.22901   0.44183   0.60017   0.54814
C          C       0.21412   0.90698   0.10642  -0.44180
C          C       0.23294   0.46950   0.30548  -0.18839
C          C       0.25823   0.52599   0.16868  -0.07326
C          C       0.35277   0.46071   0.27064   0.17526
C          C       0.12546   0.50728   0.26765  -0.10364
C          C       0.36583   0.48757   0.20519  -0.22176
C          C       0.13770   0.53418   0.20215  -0.11389
C          C       0.21904   0.44179   0.37367   0.51925
C          C       0.15714   0.16645   0.51280   0.58072
C          C       0.28177   0.10742   0.53131   0.15846
C          C       0.27109   0.55825   0.10015   0.54951
C          C       0.28631   0.09285   0.60669  -0.44414
C          C       0.73358   0.02956   0.69446  -0.18959
C          C       0.75854   0.97483   0.83128  -0.07354
C          C       0.85324   0.03901   0.72932   0.17629
C          C       0.62609   0.99208   0.73222  -0.10305
C          C       0.86621   0.01287   0.79485  -0.22284
C          C       0.63824   0.96589   0.79780  -0.11497
C          C       0.71969   0.05637   0.62618   0.51910
C          C       0.65716   0.33161   0.48760   0.58509
C          C       0.78124   0.39036   0.46890   0.14965
C          C       0.77089   0.94385   0.89993   0.54693
C          C       0.78571   0.40611   0.39365  -0.44134
C          C       0.76637   0.97027   0.19457  -0.18936
C          C       0.74142   0.02571   0.33131  -0.07341
C          C       0.64671   0.96094   0.22945   0.17561
C          C       0.87388   0.00771   0.23231  -0.10325
C          C       0.63376   0.98745   0.29494  -0.22142
C          C       0.86180   0.03405   0.29786  -0.11551
C          C       0.78025   0.94362   0.12628   0.51921
C          C       0.84298   0.66874   0.98758   0.58493
C          C       0.71894   0.60977   0.96899   0.15031
C          C       0.72889   0.05799   0.39976   0.55032
C          C       0.71448   0.59392   0.89374  -0.44127
N          N       0.03650   0.57942   0.80909  -0.49698
N          N       0.46354   0.42051   0.30909  -0.49634
N          N       0.96380   0.07946   0.69089  -0.49532
N          N       0.53623   0.92047   0.19098  -0.49682
O          O       0.17581   0.59265   0.90634  -0.55215
O          O       0.39068   0.54892   0.90305  -0.55141
O          O       0.11510   0.44950   0.57324  -0.59374
O          O       0.33069   0.40685   0.57020  -0.58827
O          O       0.10931   0.83641   0.00670  -0.62997
O          O       0.33027   0.74596   0.98020  -0.56464
O          O       0.44878   0.87312   0.03094  -0.52573
O          O       0.32417   0.40732   0.40634  -0.55280
O          O       0.10932   0.45105   0.40302  -0.55216
O          O       0.38505   0.55082   0.07326  -0.59392
O          O       0.16934   0.59311   0.07017  -0.58908
O          O       0.39032   0.16378   0.50676  -0.63051
O          O       0.16959   0.25388   0.48030  -0.56479
O          O       0.05130   0.12702   0.53154  -0.52604
O          O       0.82465   0.09019   0.59346  -0.55409
O          O       0.60997   0.04664   0.59690  -0.55136
O          O       0.88465   0.95180   0.92687  -0.59037
O          O       0.66902   0.90978   0.92999  -0.58843
O          O       0.89015   0.33379   0.49320  -0.62892
O          O       0.67053   0.24418   0.52003  -0.56432
O          O       0.55095   0.37105   0.46937  -0.52581
O          O       0.67527   0.90984   0.09349  -0.55329
O          O       0.88991   0.95354   0.09698  -0.55106
O          O       0.61455   0.05310   0.42630  -0.59308
O          O       0.83133   0.09023   0.43007  -0.58883
O          O       0.60993   0.66624   0.99323  -0.62894
O          O       0.82994   0.75641   0.01978  -0.56475
O          O       0.94907   0.62896   0.96935  -0.52559

