data_crystal

_audit_creation_method 'AiiDA-DDEC plugin'

_cell_length_a        13.79900
_cell_length_b        14.07370
_cell_length_c        14.62462

_cell_angle_alpha     95.90536
_cell_angle_beta     89.98880
_cell_angle_gamma     119.30011

_symmetry_space_group_name_Hall 'P 1'
_symmetry_space_group_name_H-M  'P 1'

loop_
_symmetry_equiv_pos_as_xyz
 'x,y,z'

loop_
_atom_site_label
_atom_site_type_symbol
_atom_site_fract_x
_atom_site_fract_y
_atom_site_fract_z
_atom_site_charge
La         La      0.96009   0.34210   0.47365   1.93212
La         La      0.61730   0.65712   0.02544   1.93221
La         La      0.03991   0.65790   0.52635   1.93202
La         La      0.38269   0.34288   0.97455   1.93228
H          H       0.17195   0.01257   0.38890   0.11573
H          H       0.31599   0.18290   0.33025   0.11218
H          H       0.56633   0.09576   0.39072   0.11918
H          H       0.42099   0.92576   0.44853   0.11257
H          H       0.43585   0.26438   0.22289   0.11750
H          H       0.73953   0.56666   0.29531   0.13302
H          H       0.66290   0.28666   0.43793   0.12776
H          H       0.12639   0.26047   0.42209   0.42065
H          H       0.01252   0.16911   0.44954   0.40684
H          H       0.16076   0.98923   0.11012   0.11560
H          H       0.13281   0.81812   0.16901   0.11112
H          H       0.46973   0.90259   0.10923   0.11875
H          H       0.49624   0.07407   0.05247   0.11337
H          H       0.16964   0.73617   0.27638   0.11815
H          H       0.17352   0.43416   0.20731   0.13360
H          H       0.37687   0.71304   0.06382   0.12853
H          H       0.86797   0.73890   0.07897   0.42216
H          H       0.84324   0.82952   0.05228   0.40999
H          H       0.82805   0.98743   0.61110   0.11571
H          H       0.68400   0.81710   0.66974   0.11211
H          H       0.43367   0.90424   0.60928   0.11923
H          H       0.57901   0.07424   0.55147   0.11257
H          H       0.56415   0.73562   0.77710   0.11743
H          H       0.26047   0.43334   0.70469   0.13307
H          H       0.33710   0.71334   0.56206   0.12790
H          H       0.87360   0.73953   0.57790   0.42075
H          H       0.98747   0.83089   0.55046   0.40685
H          H       0.83924   0.01077   0.88988   0.11558
H          H       0.86718   0.18188   0.83098   0.11104
H          H       0.53027   0.09741   0.89077   0.11887
H          H       0.50375   0.92593   0.94753   0.11346
H          H       0.83036   0.26382   0.72361   0.11824
H          H       0.82647   0.56584   0.79269   0.13360
H          H       0.62312   0.28696   0.93618   0.12847
H          H       0.13203   0.26110   0.92103   0.42215
H          H       0.15676   0.17047   0.94771   0.40994
C          C       0.20438   0.86730   0.47118   0.56750
C          C       0.28840   0.96086   0.42560  -0.04660
C          C       0.25841   0.03160   0.38861  -0.08981
C          C       0.33920   0.12629   0.35546  -0.14175
C          C       0.45193   0.15309   0.35850   0.07983
C          C       0.48019   0.07824   0.39023  -0.13604
C          C       0.39913   0.98310   0.42310  -0.08513
C          C       0.53708   0.26168   0.33459   0.06099
C          C       0.51269   0.31048   0.26578  -0.12084
C          C       0.58540   0.41907   0.25031  -0.04301
C          C       0.68439   0.48120   0.30472  -0.09391
C          C       0.71238   0.43177   0.37071  -0.04427
C          C       0.64036   0.32234   0.38475  -0.12627
C          C       0.81717   0.49898   0.42890   0.61810
C          C       0.55420   0.46560   0.17534   0.63023
C          C       0.33971   0.13366   0.02867   0.56788
C          C       0.32884   0.03977   0.07453  -0.04784
C          C       0.22766   0.96940   0.11096  -0.09088
C          C       0.21296   0.87440   0.14423  -0.14022
C          C       0.29842   0.84680   0.14150   0.08032
C          C       0.40182   0.92118   0.11008  -0.13636
C          C       0.41685   0.01685   0.07756  -0.08345
C          C       0.27479   0.73825   0.16587   0.06016
C          C       0.20102   0.68986   0.23442  -0.12255
C          C       0.16571   0.58161   0.25067  -0.04366
C          C       0.20354   0.51944   0.19742  -0.09393
C          C       0.28121   0.56834   0.13155  -0.04351
C          C       0.31811   0.67745   0.11666  -0.12491
C          C       0.31935   0.50035   0.07486   0.61382
C          C       0.08751   0.53499   0.32510   0.63099
C          C       0.79562   0.13270   0.52881   0.56776
C          C       0.71159   0.03914   0.57439  -0.04660
C          C       0.74159   0.96840   0.61139  -0.08989
C          C       0.66080   0.87371   0.64454  -0.14171
C          C       0.54807   0.84691   0.64150   0.07985
C          C       0.51980   0.92176   0.60977  -0.13608
C          C       0.60086   0.01689   0.57689  -0.08511
C          C       0.46292   0.73832   0.66541   0.06098
C          C       0.48730   0.68952   0.73422  -0.12090
C          C       0.41459   0.58093   0.74969  -0.04302
C          C       0.31561   0.51880   0.69527  -0.09390
C          C       0.28762   0.56823   0.62929  -0.04429
C          C       0.35964   0.67766   0.61524  -0.12626
C          C       0.18282   0.50102   0.57110   0.61790
C          C       0.44580   0.53440   0.82465   0.63031
C          C       0.66028   0.86634   0.97133   0.56771
C          C       0.67116   0.96023   0.92546  -0.04770
C          C       0.77234   0.03060   0.88904  -0.09093
C          C       0.78704   0.12560   0.85576  -0.14020
C          C       0.70158   0.15320   0.85849   0.08029
C          C       0.59818   0.07882   0.88992  -0.13641
C          C       0.58315   0.98315   0.92244  -0.08352
C          C       0.72520   0.26174   0.83412   0.06026
C          C       0.79898   0.31013   0.76558  -0.12260
C          C       0.83429   0.41839   0.74933  -0.04366
C          C       0.79646   0.48056   0.80257  -0.09395
C          C       0.71879   0.43165   0.86845  -0.04337
C          C       0.68189   0.32255   0.88333  -0.12498
C          C       0.68065   0.49964   0.92514   0.61374
C          C       0.91249   0.46501   0.67489   0.63099
O          O       0.10121   0.84157   0.46310  -0.63310
O          O       0.23488   0.81299   0.51821  -0.62913
O          O       0.86650   0.45167   0.46325  -0.70655
O          O       0.85687   0.60230   0.44436  -0.60276
O          O       0.61773   0.56551   0.16198  -0.63993
O          O       0.46325   0.40014   0.12849  -0.64338
O          O       0.04757   0.21925   0.40279  -0.77381
O          O       0.26037   0.15713   0.03230  -0.63583
O          O       0.42750   0.19066   0.98589  -0.62627
O          O       0.41402   0.54748   0.03721  -0.70734
O          O       0.25786   0.39663   0.06376  -0.59727
O          O       0.05116   0.43496   0.33812  -0.63932
O          O       0.06174   0.60038   0.37189  -0.64402
O          O       0.82685   0.77695   0.09709  -0.77719
O          O       0.89879   0.15843   0.53690  -0.63342
O          O       0.76512   0.18701   0.48179  -0.62903
O          O       0.13349   0.54833   0.53675  -0.70639
O          O       0.14313   0.39770   0.55564  -0.60268
O          O       0.38226   0.43449   0.83802  -0.63996
O          O       0.53674   0.59986   0.87150  -0.64344
O          O       0.95243   0.78075   0.59720  -0.77394
O          O       0.73962   0.84287   0.96769  -0.63579
O          O       0.57250   0.80934   0.01411  -0.62624
O          O       0.58598   0.45252   0.96279  -0.70733
O          O       0.74213   0.60337   0.93624  -0.59737
O          O       0.94884   0.56504   0.66188  -0.63934
O          O       0.93825   0.39962   0.62810  -0.64403
O          O       0.17314   0.22305   0.90291  -0.77707

