data_crystal

_audit_creation_method 'AiiDA-DDEC plugin'

_cell_length_a        14.79581
_cell_length_b        14.79700
_cell_length_c        17.04300

_cell_angle_alpha     90.00000
_cell_angle_beta     90.00000
_cell_angle_gamma     120.04134

_symmetry_space_group_name_Hall 'P 1'
_symmetry_space_group_name_H-M  'P 1'

loop_
_symmetry_equiv_pos_as_xyz
 'x,y,z'

loop_
_atom_site_label
_atom_site_type_symbol
_atom_site_fract_x
_atom_site_fract_y
_atom_site_fract_z
_atom_site_charge
Fe         Fe      0.74031   0.25967   0.25007   1.38705
Fe         Fe      0.51930   0.25964   0.25006   1.38668
Fe         Fe      0.74034   0.48068   0.25007   1.38689
Fe         Fe      0.25968   0.74033   0.74994   1.38711
Fe         Fe      0.48066   0.74034   0.74994   1.38667
Fe         Fe      0.25964   0.51930   0.74994   1.38684
H          H       0.67288   0.05518   0.43918   0.12051
H          H       0.38221   0.32709   0.43922   0.12050
H          H       0.94487   0.61768   0.43922   0.12322
H          H       0.32713   0.94484   0.93918   0.12036
H          H       0.61777   0.67291   0.93921   0.12051
H          H       0.05512   0.38232   0.93921   0.12326
H          H       0.61771   0.94489   0.56077   0.12326
H          H       0.05516   0.67285   0.56082   0.12050
H          H       0.32707   0.38223   0.56080   0.12059
H          H       0.38231   0.05512   0.06078   0.12326
H          H       0.94485   0.32716   0.06083   0.12031
H          H       0.67292   0.61777   0.06081   0.12066
H          H       0.32712   0.94482   0.56082   0.12038
H          H       0.61779   0.67292   0.56079   0.12051
H          H       0.05513   0.38232   0.56079   0.12330
H          H       0.67287   0.05516   0.06082   0.12046
H          H       0.38223   0.32710   0.06079   0.12052
H          H       0.94488   0.61768   0.06079   0.12324
H          H       0.38229   0.05511   0.43923   0.12313
H          H       0.94484   0.32715   0.43918   0.12048
H          H       0.67293   0.61777   0.43920   0.12058
H          H       0.61769   0.94488   0.93923   0.12321
H          H       0.05515   0.67285   0.93918   0.12028
H          H       0.32708   0.38223   0.93920   0.12092
C          C       0.59754   0.03042   0.46629  -0.09674
C          C       0.43282   0.40244   0.46632  -0.09707
C          C       0.96962   0.56712   0.46633  -0.09943
C          C       0.40247   0.96958   0.96629  -0.09647
C          C       0.56716   0.59755   0.96632  -0.09705
C          C       0.03039   0.43289   0.96633  -0.09943
C          C       0.56714   0.96963   0.53367  -0.09949
C          C       0.03041   0.59752   0.53370  -0.09669
C          C       0.40244   0.43283   0.53369  -0.09736
C          C       0.43289   0.03039   0.03368  -0.09962
C          C       0.96959   0.40249   0.03371  -0.09637
C          C       0.59756   0.56716   0.03369  -0.09724
C          C       0.40247   0.96958   0.53371  -0.09651
C          C       0.56718   0.59756   0.53368  -0.09707
C          C       0.03038   0.43288   0.53367  -0.09943
C          C       0.59753   0.03042   0.03371  -0.09645
C          C       0.43284   0.40245   0.03369  -0.09696
C          C       0.96962   0.56711   0.03368  -0.09940
C          C       0.43287   0.03037   0.46633  -0.09942
C          C       0.96960   0.40248   0.46630  -0.09677
C          C       0.59756   0.56717   0.46631  -0.09733
C          C       0.56712   0.96962   0.96633  -0.09964
C          C       0.03041   0.59752   0.96630  -0.09640
C          C       0.40244   0.43284   0.96631  -0.09780
C          C       0.56410   0.12822   0.36121   0.61175
C          C       0.53073   0.06143   0.43190  -0.04325
C          C       0.56410   0.43588   0.36122   0.61142
C          C       0.53072   0.46928   0.43190  -0.04243
C          C       0.87179   0.43589   0.36120   0.61183
C          C       0.93857   0.46927   0.43189  -0.04337
C          C       0.43587   0.87173   0.86118   0.61180
C          C       0.46927   0.93856   0.93189  -0.04235
C          C       0.43587   0.56414   0.86119   0.61157
C          C       0.46928   0.53072   0.93189  -0.04183
C          C       0.12824   0.56412   0.86117   0.61212
C          C       0.06143   0.53072   0.93189  -0.04261
C          C       0.43590   0.87178   0.63879   0.61148
C          C       0.46928   0.93857   0.56811  -0.04318
C          C       0.12821   0.56411   0.63880   0.61185
C          C       0.06144   0.53073   0.56811  -0.04336
C          C       0.43590   0.56412   0.63878   0.61140
C          C       0.46928   0.53072   0.56811  -0.04243
C          C       0.56413   0.12826   0.13882   0.61203
C          C       0.53073   0.06144   0.06811  -0.04248
C          C       0.87176   0.43587   0.13883   0.61208
C          C       0.93857   0.46927   0.06812  -0.04272
C          C       0.56413   0.43586   0.13881   0.61140
C          C       0.53073   0.46928   0.06811  -0.04181
O          O       0.65506   0.15584   0.33306  -0.57348
O          O       0.50074   0.34492   0.33307  -0.57351
O          O       0.84419   0.49921   0.33307  -0.57389
O          O       0.34492   0.84412   0.83305  -0.57341
O          O       0.49923   0.65510   0.83306  -0.57331
O          O       0.15583   0.50080   0.83306  -0.57385
O          O       0.49920   0.84417   0.66693  -0.57375
O          O       0.15582   0.65504   0.66695  -0.57354
O          O       0.34491   0.50074   0.66693  -0.57361
O          O       0.50081   0.15585   0.16693  -0.57388
O          O       0.84414   0.34494   0.16696  -0.57330
O          O       0.65511   0.49923   0.16693  -0.57338
O          O       0.34494   0.84417   0.66695  -0.57345
O          O       0.49925   0.65508   0.66693  -0.57340
O          O       0.15580   0.50078   0.66694  -0.57385
O          O       0.65508   0.15588   0.16695  -0.57343
O          O       0.50076   0.34490   0.16694  -0.57324
O          O       0.84416   0.49920   0.16694  -0.57385
O          O       0.50079   0.15582   0.33307  -0.57397
O          O       0.84418   0.34496   0.33305  -0.57349
O          O       0.65509   0.49925   0.33307  -0.57359
O          O       0.49918   0.84414   0.83307  -0.57371
O          O       0.15585   0.65506   0.83304  -0.57334
O          O       0.34489   0.50076   0.83307  -0.57346
O          O       0.66667   0.33332   0.25002  -0.97609
O          O       0.33330   0.66666   0.74998  -0.97620

