data_crystal

_audit_creation_method 'AiiDA-DDEC plugin'

_cell_length_a         9.74945
_cell_length_b        13.75947
_cell_length_c        15.32103

_cell_angle_alpha     89.94450
_cell_angle_beta     94.74482
_cell_angle_gamma     90.12725

_symmetry_space_group_name_Hall 'P 1'
_symmetry_space_group_name_H-M  'P 1'

loop_
_symmetry_equiv_pos_as_xyz
 'x,y,z'

loop_
_atom_site_label
_atom_site_type_symbol
_atom_site_fract_x
_atom_site_fract_y
_atom_site_fract_z
_atom_site_charge
Tb         Tb      0.04944   0.09428   0.90507   2.02402
Tb         Tb      0.45163   0.59507   0.59339   2.02274
Tb         Tb      0.95056   0.90572   0.09490   2.02388
Tb         Tb      0.54839   0.40497   0.40662   2.02258
H          H       0.66194   0.89800   0.73656   0.11632
H          H       0.74308   0.80343   0.79957   0.10605
H          H       0.66544   0.87678   0.93684   0.09018
H          H       0.55774   0.04188   0.93349   0.09334
H          H       0.55122   0.04250   0.81811   0.11352
H          H       0.41320   0.89204   0.93052   0.09580
H          H       0.29970   0.83035   0.79130   0.11858
H          H       0.39371   0.91394   0.73126   0.10869
H          H       0.51753   0.75589   0.85464   0.10217
H          H       0.83820   0.39965   0.76326   0.11579
H          H       0.75651   0.30507   0.70015   0.10617
H          H       0.83474   0.37803   0.56306   0.09024
H          H       0.94446   0.54267   0.56587   0.09421
H          H       0.95158   0.54362   0.68116   0.11427
H          H       0.08675   0.39206   0.56898   0.09609
H          H       0.20010   0.33066   0.70818   0.11721
H          H       0.10801   0.41489   0.76820   0.10746
H          H       0.98118   0.25733   0.64549   0.09900
H          H       0.33824   0.10219   0.26361   0.11728
H          H       0.25710   0.19673   0.20055   0.10658
H          H       0.33440   0.12324   0.06325   0.09026
H          H       0.44206   0.95816   0.06656   0.09347
H          H       0.44879   0.95747   0.18194   0.11336
H          H       0.58678   0.10791   0.06948   0.09555
H          H       0.70045   0.16958   0.20868   0.11846
H          H       0.60637   0.08605   0.26875   0.10897
H          H       0.48265   0.24412   0.14537   0.09946
H          H       0.16191   0.60023   0.23680   0.11557
H          H       0.24360   0.69481   0.29990   0.10611
H          H       0.16525   0.62191   0.43699   0.09056
H          H       0.05544   0.45727   0.43414   0.09419
H          H       0.04840   0.45635   0.31885   0.11425
H          H       0.91324   0.60795   0.43099   0.09572
H          H       0.80002   0.66938   0.29179   0.11749
H          H       0.89199   0.58509   0.23177   0.10850
H          H       0.01893   0.74257   0.35453   0.09932
C          C       0.65683   0.85495   0.79658  -0.18018
C          C       0.66887   0.92200   0.87788  -0.11751
C          C       0.54810   0.99487   0.87547  -0.18196
C          C       0.41200   0.93860   0.87152  -0.08959
C          C       0.39680   0.87076   0.79183  -0.18606
C          C       0.51964   0.79994   0.79475  -0.09251
C          C       0.28497   0.00116   0.87677   0.59365
C          C       0.80444   0.97507   0.88659   0.65660
C          C       0.49336   0.72929   0.71995   0.60435
C          C       0.84305   0.35661   0.70330  -0.18028
C          C       0.83197   0.42353   0.62180  -0.11624
C          C       0.95367   0.49575   0.62398  -0.18462
C          C       0.08878   0.43893   0.62775  -0.08977
C          C       0.10361   0.37148   0.70782  -0.18374
C          C       0.97963   0.30128   0.70538  -0.09098
C          C       0.21593   0.50132   0.62161   0.59454
C          C       0.69743   0.47728   0.61297   0.65665
C          C       0.00458   0.22977   0.77975   0.60629
C          C       0.34323   0.14510   0.20348  -0.18171
C          C       0.33108   0.07800   0.12219  -0.11705
C          C       0.45186   0.00513   0.12460  -0.18165
C          C       0.58799   0.06137   0.12850  -0.08907
C          C       0.60330   0.12922   0.20818  -0.18615
C          C       0.48048   0.20007   0.20525  -0.09085
C          C       0.71502  -0.00121   0.12327   0.59296
C          C       0.19559   0.02486   0.11330   0.65718
C          C       0.50674   0.27073   0.28004   0.60468
C          C       0.15705   0.64329   0.29675  -0.17957
C          C       0.16803   0.57639   0.37825  -0.11697
C          C       0.04629   0.50421   0.37604  -0.18512
C          C       0.91123   0.56108   0.37222  -0.08939
C          C       0.89646   0.62851   0.29214  -0.18479
C          C       0.02052   0.69865   0.29462  -0.09125
C          C       0.78408   0.49870   0.37838   0.59467
C          C       0.30258   0.52266   0.38707   0.65678
C          C       0.99576   0.77019   0.22024   0.60646
O          O       0.16662   0.96134   0.85796  -0.64006
O          O       0.29313   0.08938   0.90361  -0.63398
O          O       0.83213   0.04253   0.83498  -0.58971
O          O       0.89633   0.95241   0.95067  -0.80755
O          O       0.42452   0.65223   0.73354  -0.63235
O          O       0.53380   0.74695   0.64321  -0.67095
O          O       0.33413   0.46145   0.63995  -0.64159
O          O       0.20765   0.58943   0.59452  -0.63159
O          O       0.67319   0.54732   0.66246  -0.59027
O          O       0.60307   0.45233   0.55099  -0.80722
O          O       0.06926   0.15173   0.76422  -0.63134
O          O       0.96763   0.24711   0.85748  -0.67385
O          O       0.83339   0.03865   0.14202  -0.64005
O          O       0.70687   0.91053   0.09656  -0.63355
O          O       0.16805   0.95713   0.16467  -0.59062
O          O       0.10363   0.04771   0.04933  -0.80694
O          O       0.57556   0.34778   0.26646  -0.63197
O          O       0.46626   0.25307   0.35678  -0.67136
O          O       0.66587   0.53855   0.36005  -0.64131
O          O       0.79235   0.41058   0.40548  -0.63198
O          O       0.32683   0.45265   0.33756  -0.59018
O          O       0.39697   0.54765   0.44901  -0.80732
O          O       0.93087   0.84818   0.23571  -0.63180
O          O       0.03302   0.75292   0.14259  -0.67368

