data_crystal

_audit_creation_method 'AiiDA-DDEC plugin'

_cell_length_a        14.39260
_cell_length_b        14.39267
_cell_length_c        18.52561

_cell_angle_alpha     90.00022
_cell_angle_beta     89.99955
_cell_angle_gamma     119.82006

_symmetry_space_group_name_Hall 'P 1'
_symmetry_space_group_name_H-M  'P 1'

loop_
_symmetry_equiv_pos_as_xyz
 'x,y,z'

loop_
_atom_site_label
_atom_site_type_symbol
_atom_site_fract_x
_atom_site_fract_y
_atom_site_fract_z
_atom_site_charge
In         In      0.74938   0.25061   0.74947   1.47615
In         In      0.50106   0.25063   0.74946   1.47724
In         In      0.74937   0.49894   0.74946   1.47722
In         In      0.25062   0.74939   0.25053   1.47618
In         In      0.49894   0.74937   0.25054   1.47719
In         In      0.25064   0.50106   0.25054   1.47721
In         In      0.00013  -0.00014   0.87412   0.24144
In         In     -0.00014   0.00013   0.37428   0.24102
In         In     -0.00014   0.00013   0.12588   0.24138
In         In      0.00013  -0.00014   0.62572   0.24099
H          H       0.67358   0.04949   0.55900   0.11067
H          H       0.37636   0.32674   0.55915   0.11119
H          H       0.95032   0.62412   0.55923   0.11108
H          H       0.32650   0.95062   0.05895   0.11079
H          H       0.62367   0.67318   0.05910   0.11067
H          H       0.04958   0.37586   0.05918   0.11101
H          H       0.62412   0.95032   0.44077   0.11113
H          H       0.04949   0.67358   0.44100   0.11060
H          H       0.32674   0.37636   0.44085   0.11116
H          H       0.37586   0.04957   0.94082   0.11096
H          H       0.95062   0.32649   0.94105   0.11090
H          H       0.67318   0.62367   0.94090   0.11058
H          H       0.32642   0.95051   0.44100   0.11060
H          H       0.62364   0.67326   0.44085   0.11117
H          H       0.04968   0.37588   0.44077   0.11110
H          H       0.67350   0.04938   0.94105   0.11076
H          H       0.37633   0.32682   0.94090   0.11068
H          H       0.95042   0.62414   0.94082   0.11093
H          H       0.37588   0.04968   0.55923   0.11111
H          H       0.95051   0.32642   0.55900   0.11071
H          H       0.67326   0.62364   0.55915   0.11118
H          H       0.62415   0.95042   0.05918   0.11106
H          H       0.04938   0.67350   0.05895   0.11087
H          H       0.32682   0.37633   0.05910   0.11059
H          H       0.85797   0.14203   0.86309   0.10875
H          H       0.28397   0.14199   0.86310   0.10816
H          H       0.85801   0.71603   0.86310   0.10820
H          H       0.14201   0.85799   0.36323   0.10863
H          H       0.71607   0.85803   0.36324   0.10842
H          H       0.14197   0.28393   0.36324   0.10842
H          H       0.71603   0.85801   0.13690   0.10808
H          H       0.14203   0.85797   0.13691   0.10871
H          H       0.14199   0.28397   0.13690   0.10809
H          H       0.28393   0.14197   0.63676   0.10837
H          H       0.85799   0.14201   0.63677   0.10856
H          H       0.85803   0.71606   0.63676   0.10840
C          C       0.59796   0.02737   0.53259  -0.09452
C          C       0.42967   0.40221   0.53269  -0.09596
C          C       0.97250   0.57058   0.53275  -0.09594
C          C       0.40217   0.97260   0.03264  -0.09660
C          C       0.57017   0.59766   0.03274  -0.09591
C          C       0.02754   0.42958   0.03280  -0.09666
C          C       0.57058   0.97249   0.46725  -0.09576
C          C       0.02737   0.59796   0.46741  -0.09441
C          C       0.40221   0.42967   0.46731  -0.09592
C          C       0.42958   0.02753   0.96720  -0.09674
C          C       0.97259   0.40217   0.96736  -0.09667
C          C       0.59765   0.57016   0.96726  -0.09606
C          C       0.40204   0.97263   0.46741  -0.09442
C          C       0.57033   0.59779   0.46731  -0.09594
C          C       0.02750   0.42942   0.46725  -0.09583
C          C       0.59783   0.02740   0.96736  -0.09656
C          C       0.42983   0.40234   0.96726  -0.09587
C          C       0.97246   0.57041   0.96720  -0.09679
C          C       0.42942   0.02750   0.53275  -0.09597
C          C       0.97263   0.40204   0.53259  -0.09445
C          C       0.59779   0.57033   0.53269  -0.09607
C          C       0.57042   0.97246   0.03280  -0.09662
C          C       0.02741   0.59783   0.03264  -0.09665
C          C       0.40235   0.42983   0.03274  -0.09601
C          C       0.87155   0.12844   0.80757   0.12760
C          C       0.25695   0.12851   0.80755   0.12772
C          C       0.87149   0.74305   0.80755   0.12769
C          C       0.12841   0.87159   0.30773   0.12639
C          C       0.74314   0.87153   0.30771   0.12629
C          C       0.12847   0.25687   0.30771   0.12637
C          C       0.74306   0.87149   0.19245   0.12767
C          C       0.12845   0.87155   0.19243   0.12779
C          C       0.12851   0.25695   0.19245   0.12766
C          C       0.25687   0.12847   0.69229   0.12626
C          C       0.87159   0.12840   0.69227   0.12633
C          C       0.87153   0.74313   0.69229   0.12623
C          C       0.55805   0.11614   0.63549   0.61115
C          C       0.52759   0.05525   0.56580  -0.02860
C          C       0.55806   0.44194   0.63554   0.61077
C          C       0.52763   0.47237   0.56582  -0.02736
C          C       0.88385   0.44195   0.63549   0.61107
C          C       0.94475   0.47240   0.56580  -0.02869
C          C       0.44203   0.88401   0.13632   0.60940
C          C       0.47229   0.94450   0.06611  -0.02598
C          C       0.44202   0.55798   0.13639   0.60928
C          C       0.47224   0.52776   0.06614  -0.02688
C          C       0.11600   0.55798   0.13632   0.60931
C          C       0.05550   0.52772   0.06611  -0.02595
C          C       0.44195   0.88385   0.36451   0.61112
C          C       0.47241   0.94475   0.43420  -0.02875
C          C       0.11615   0.55805   0.36451   0.61110
C          C       0.05525   0.52759   0.43420  -0.02871
C          C       0.44194   0.55806   0.36447   0.61110
C          C       0.47237   0.52763   0.43418  -0.02753
C          C       0.55797   0.11599   0.86368   0.60949
C          C       0.52771   0.05549   0.93389  -0.02586
C          C       0.88400   0.44202   0.86368   0.60936
C          C       0.94450   0.47228   0.93389  -0.02587
C          C       0.55798   0.44202   0.86361   0.60902
C          C       0.52776   0.47224   0.93387  -0.02679
N          N       0.83795   0.16204   0.74989  -0.33275
N          N       0.32401   0.16212   0.74989  -0.33360
N          N       0.83788   0.67598   0.74989  -0.33331
N          N       0.16205   0.83795   0.25012  -0.33274
N          N       0.67599   0.83788   0.25011  -0.33363
N          N       0.16213   0.32401   0.25011  -0.33346
N          N       0.92284   0.07716   0.78716  -0.15553
N          N       0.15464   0.07726   0.78717  -0.15640
N          N       0.92274   0.84535   0.78717  -0.15653
N          N       0.07714   0.92286   0.28728  -0.15490
N          N       0.84541   0.92276   0.28729  -0.15580
N          N       0.07724   0.15459   0.28729  -0.15596
N          N       0.84536   0.92274   0.21284  -0.15636
N          N       0.07717   0.92284   0.21284  -0.15593
N          N       0.07727   0.15465   0.21284  -0.15652
N          N       0.15459   0.07723   0.71272  -0.15593
N          N       0.92286   0.07713   0.71272  -0.15496
N          N       0.92276   0.84541   0.71272  -0.15605
O          O       0.64896   0.13922   0.66197  -0.58559
O          O       0.49035   0.35118   0.66204  -0.58477
O          O       0.86072   0.50984   0.66203  -0.58521
O          O       0.35133   0.86115   0.16314  -0.58579
O          O       0.50973   0.64850   0.16324  -0.58490
O          O       0.13890   0.49009   0.16321  -0.58530
O          O       0.50984   0.86072   0.33797  -0.58509
O          O       0.13922   0.64896   0.33803  -0.58561
O          O       0.35119   0.49035   0.33796  -0.58501
O          O       0.49009   0.13890   0.83679  -0.58546
O          O       0.86115   0.35133   0.83686  -0.58556
O          O       0.64850   0.50972   0.83676  -0.58497
O          O       0.35104   0.86078   0.33803  -0.58563
O          O       0.50965   0.64881   0.33796  -0.58494
O          O       0.13928   0.49016   0.33797  -0.58513
O          O       0.64867   0.13884   0.83686  -0.58576
O          O       0.49027   0.35149   0.83677  -0.58478
O          O       0.86110   0.50991   0.83679  -0.58549
O          O       0.49016   0.13928   0.66203  -0.58516
O          O       0.86078   0.35104   0.66197  -0.58547
O          O       0.64881   0.50964   0.66204  -0.58488
O          O       0.50991   0.86110   0.16321  -0.58525
O          O       0.13885   0.64867   0.16314  -0.58563
O          O       0.35150   0.49027   0.16324  -0.58501
O          O       0.66656   0.33344   0.74931  -1.04420
O          O       0.33344   0.66656   0.25069  -1.04423

