data_crystal

_audit_creation_method 'AiiDA-DDEC plugin'

_cell_length_a        18.96379
_cell_length_b        18.96654
_cell_length_c        21.17258

_cell_angle_alpha     63.39897
_cell_angle_beta     63.39952
_cell_angle_gamma     59.91768

_symmetry_space_group_name_Hall 'P 1'
_symmetry_space_group_name_H-M  'P 1'

loop_
_symmetry_equiv_pos_as_xyz
 'x,y,z'

loop_
_atom_site_label
_atom_site_type_symbol
_atom_site_fract_x
_atom_site_fract_y
_atom_site_fract_z
_atom_site_charge
Cu         Cu      0.50200   0.93979   0.05616   0.92097
Cu         Cu      0.50204   0.50204   0.05606   0.91952
Cu         Cu      0.93979   0.50201   0.05613   0.92077
Cu         Cu      0.49800   0.06021   0.94384   0.92098
Cu         Cu      0.06022   0.49799   0.94387   0.92071
Cu         Cu      0.49796   0.49796   0.94394   0.91963
H          H       0.46883   0.97680   0.80599   0.14079
H          H       0.49067   0.08460   0.56753   0.12270
H          H       0.74883   0.46876   0.80578   0.13601
H          H       0.85735   0.49070   0.56722   0.12231
H          H       0.97702   0.74870   0.80545   0.13962
H          H       0.08474   0.85714   0.56743   0.12317
H          H       0.25138   0.02293   0.19452   0.13933
H          H       0.14290   0.91518   0.43261   0.12328
H          H       0.02319   0.53116   0.19410   0.14093
H          H       0.91543   0.50934   0.43243   0.12288
H          H       0.53127   0.25116   0.19414   0.13973
H          H       0.50929   0.14262   0.43277   0.12226
H          H       0.53118   0.02320   0.19400   0.14089
H          H       0.50933   0.91539   0.43247   0.12286
H          H       0.25118   0.53124   0.19421   0.13551
H          H       0.14266   0.50930   0.43278   0.12239
H          H       0.02298   0.25129   0.19455   0.13949
H          H       0.91526   0.14286   0.43257   0.12306
H          H       0.74862   0.97706   0.80548   0.13927
H          H       0.85710   0.08481   0.56739   0.12310
H          H       0.97681   0.46884   0.80589   0.14103
H          H       0.08458   0.49066   0.56756   0.12283
H          H       0.46874   0.74884   0.80586   0.13994
H          H       0.49071   0.85738   0.56722   0.12234
H          H       0.47037   0.76416   0.00194   0.14062
H          H       0.76410   0.47036   0.00187   0.14073
H          H       0.76394   0.76413   0.00148   0.14233
H          H       0.23607   0.23587  -0.00148   0.14240
H          H       0.23590   0.52964   0.99813   0.14081
H          H       0.52964   0.23584   0.99806   0.14077
C          C       0.47372   0.92311   0.94503   0.58919
C          C       0.46810   0.87594   0.90786  -0.03196
C          C       0.46782   0.91316   0.83402  -0.12251
C          C       0.49472   0.04790   0.53778  -0.13022
C          C       0.65841   0.47360   0.94503   0.58911
C          C       0.74838   0.46800   0.90785  -0.03444
C          C       0.78528   0.46774   0.83399  -0.11558
C          C       0.91970   0.49475   0.53762  -0.13073
C          C       0.92343   0.65839   0.94442   0.58627
C          C       0.87606   0.74840   0.90742  -0.03142
C          C       0.91332   0.78528   0.83362  -0.11874
C          C       0.04799   0.91956   0.53770  -0.13185
C          C       0.34164   0.07650   0.05560   0.58659
C          C       0.25163   0.12387   0.09259  -0.03139
C          C       0.21477   0.08663   0.16638  -0.11861
C          C       0.08046   0.95197   0.46232  -0.13183
C          C       0.07688   0.52625   0.05503   0.58945
C          C       0.12406   0.53188   0.09220  -0.03207
C          C       0.08684   0.53217   0.16604  -0.12259
C          C       0.95210   0.50528   0.46221  -0.13012
C          C       0.52641   0.34158   0.05486   0.58729
C          C       0.53201   0.25161   0.09207  -0.03383
C          C       0.53227   0.21472   0.16594  -0.11955
C          C       0.50525   0.08027   0.46236  -0.13100
C          C       0.52628   0.07688   0.05496   0.58918
C          C       0.53190   0.12406   0.09213  -0.03203
C          C       0.53218   0.08684   0.16598  -0.12255
C          C       0.50528   0.95210   0.46222  -0.13016
C          C       0.34159   0.52640   0.05497   0.58894
C          C       0.25163   0.53200   0.09215  -0.03424
C          C       0.21473   0.53226   0.16601  -0.11506
C          C       0.08030   0.50524   0.46237  -0.13068
C          C       0.07658   0.34160   0.05557   0.58633
C          C       0.12394   0.25159   0.09257  -0.03125
C          C       0.08668   0.21472   0.16637  -0.11890
C          C       0.95201   0.08043   0.46230  -0.13176
C          C       0.65837   0.92350   0.94440   0.58665
C          C       0.74837   0.87613   0.90741  -0.03139
C          C       0.78523   0.91337   0.83362  -0.11875
C          C       0.91954   0.04803   0.53768  -0.13192
C          C       0.92312   0.47375   0.94497   0.58954
C          C       0.87594   0.46812   0.90780  -0.03208
C          C       0.91316   0.46783   0.83396  -0.12248
C          C       0.04790   0.49472   0.53779  -0.13019
C          C       0.47359   0.65842   0.94514   0.58719
C          C       0.46799   0.74838   0.90793  -0.03380
C          C       0.46773   0.78528   0.83406  -0.11947
C          C       0.49475   0.91973   0.53764  -0.13105
C          C       0.46835   0.79342   0.94511  -0.08944
C          C       0.46839   0.86799   0.79584   0.13176
C          C       0.47291   0.90364   0.71991  -0.10619
C          C       0.47980   0.93330   0.65380  -0.09692
C          C       0.48950   0.96677   0.57703   0.13038
C          C       0.79341   0.46837   0.94504  -0.08947
C          C       0.86799   0.46839   0.79579   0.13166
C          C       0.90364   0.47290   0.71987  -0.10639
C          C       0.93328   0.47980   0.65377  -0.09670
C          C       0.96675   0.48950   0.57701   0.12985
C          C       0.79342   0.79349   0.94466  -0.09409
C          C       0.86805   0.86809   0.79552   0.13097
C          C       0.90372   0.90377   0.71969  -0.10537
C          C       0.93326   0.93333   0.65363  -0.09891
C          C       0.96675   0.96680   0.57693   0.13242
C          C       0.20658   0.20650   0.05533  -0.09408
C          C       0.13195   0.13191   0.20447   0.13081
C          C       0.09628   0.09622   0.28031  -0.10532
C          C       0.06674   0.06667   0.34637  -0.09886
C          C       0.03325   0.03320   0.42306   0.13231
C          C       0.20659   0.53163   0.05496  -0.08944
C          C       0.13201   0.53161   0.20420   0.13172
C          C       0.09636   0.52710   0.28013  -0.10646
C          C       0.06673   0.52020   0.34623  -0.09672
C          C       0.03325   0.51050   0.42299   0.12984
C          C       0.53165   0.20658   0.05488  -0.08932
C          C       0.53161   0.13201   0.20415   0.13178
C          C       0.52710   0.09635   0.28009  -0.10616
C          C       0.52020   0.06670   0.34619  -0.09696
C          C       0.51050   0.03323   0.42296   0.13039
O          O       0.47492   0.99758   0.90685  -0.54932
O          O       0.47889   0.88506   0.01116  -0.53426
O          O       0.62088   0.47478   0.90687  -0.54719
O          O       0.62513   0.47886   0.01114  -0.53436
O          O       0.99807   0.62104   0.90622  -0.54599
O          O       0.88531   0.62499   0.01041  -0.53488
O          O       0.37898   0.00188   0.09383  -0.54644
O          O       0.37503   0.11461   0.98961  -0.53479
O          O       0.00241   0.52502   0.09322  -0.54941
O          O       0.11493   0.52110   0.98890  -0.53433
O          O       0.52529   0.37910   0.09298  -0.54744
O          O       0.52111   0.37486   0.98876  -0.53288
O          O       0.52508   0.00241   0.09315  -0.54938
O          O       0.52111   0.11494   0.98883  -0.53421
O          O       0.37912   0.52522   0.09313  -0.54729
O          O       0.37487   0.52114   0.98886  -0.53414
O          O       0.00193   0.37896   0.09378  -0.54627
O          O       0.11470   0.37500   0.98959  -0.53465
O          O       0.62102   0.99812   0.90617  -0.54638
O          O       0.62497   0.88539   0.01038  -0.53487
O          O       0.99760   0.47498   0.90677  -0.54918
O          O       0.88507   0.47890   0.01110  -0.53462
O          O       0.47471   0.62090   0.90702  -0.54725
O          O       0.47889   0.62514   0.01124  -0.53306

