data_crystal

_audit_creation_method 'AiiDA-DDEC plugin'

_cell_length_a         8.80491
_cell_length_b        18.30508
_cell_length_c        19.81166

_cell_angle_alpha     102.65204
_cell_angle_beta     90.04273
_cell_angle_gamma     90.02013

_symmetry_space_group_name_Hall 'P 1'
_symmetry_space_group_name_H-M  'P 1'

loop_
_symmetry_equiv_pos_as_xyz
 'x,y,z'

loop_
_atom_site_label
_atom_site_type_symbol
_atom_site_fract_x
_atom_site_fract_y
_atom_site_fract_z
_atom_site_charge
Cd         Cd      0.10109   0.78895   0.95747   1.04229
Cd         Cd      0.60073   0.21114   0.54260   1.04192
Cd         Cd      0.89891   0.21104   0.04253   1.04239
Cd         Cd      0.39927   0.78886   0.45741   1.04188
Cd         Cd      0.00000   0.00000   0.00000   1.12253
Cd         Cd      0.50000  -0.00000   0.50000   1.12313
H          H       0.35540   0.02030   0.04773   0.15916
H          H       0.50070   0.95909   0.06739   0.16177
H          H       0.33922   0.97895   0.12100   0.16564
H          H       0.89641   0.75532   0.10098   0.35876
H          H       0.55676   0.99759   0.32955   0.34228
H          H       0.76200   0.98738   0.11133   0.34667
H          H       0.64730   0.75977   0.30892   0.37005
H          H       0.75516   0.36749   0.96294   0.35980
H          H       0.85622   0.97988   0.45199   0.16070
H          H       0.00102   0.04164   0.43267   0.16191
H          H       0.83865   0.02196   0.37927   0.16646
H          H       0.39582   0.24438   0.39927   0.35802
H          H       0.05724   0.00284   0.16925   0.34030
H          H       0.26061   0.01247   0.38782   0.34749
H          H       0.15400   0.24035   0.18955   0.37083
H          H       0.25475   0.63235   0.53704   0.36072
H          H       0.64460   0.97970   0.95228   0.15933
H          H       0.49929   0.04091   0.93261   0.16183
H          H       0.66077   0.02105   0.87900   0.16549
H          H       0.10359   0.24468   0.89902   0.35896
H          H       0.44324   0.00241   0.67046   0.34220
H          H       0.23800   0.01261   0.88867   0.34675
H          H       0.35269   0.24023   0.69108   0.36962
H          H       0.24483   0.63251   0.03706   0.35958
H          H       0.14378   0.02012   0.54801   0.16037
H          H      -0.00102   0.95835   0.56734   0.16193
H          H       0.16135   0.97803   0.62073   0.16648
H          H       0.60418   0.75562   0.60073   0.35794
H          H       0.94276   0.99716   0.83075   0.34049
H          H       0.73939   0.98753   0.61218   0.34738
H          H       0.84600   0.75965   0.81046   0.37078
H          H       0.74525   0.36764   0.46296   0.36099
C          C       0.57597   0.88235   0.34699   0.62002
C          C       0.78260   0.87254   0.14650  -0.31144
C          C       0.64921   0.94315   0.24993   0.24038
C          C       0.71577   0.93982   0.18312   0.24117
C          C       0.29960   0.90159   0.02533   0.67567
C          C       0.70816   0.81057   0.24073   0.24996
C          C       0.85584   0.86973   0.07866   0.62210
C          C       0.90904   0.52407   0.94627   0.31957
C          C       0.37845   0.96979   0.06710  -0.52668
C          C       0.78256   0.80828   0.17529   0.25343
C          C       0.64519   0.87851   0.27806  -0.31679
C          C       0.06650   0.64407   0.96221   0.58579
C          C       0.03423   0.57088   0.97893  -0.32102
C          C       0.87646   0.45266   0.97182   0.26037
C          C       0.07727   0.11781   0.15201   0.61930
C          C       0.28254   0.12736   0.35285  -0.31298
C          C       0.15004   0.05691   0.24901   0.23979
C          C       0.21623   0.06005   0.31589   0.24250
C          C       0.79966   0.09850   0.47506   0.67854
C          C       0.21170   0.18929   0.25808   0.25079
C          C       0.35583   0.12997   0.42068   0.62141
C          C       0.40775   0.47578   0.55317   0.31817
C          C       0.87885   0.03069   0.43303  -0.52912
C          C       0.28356   0.19171   0.32416   0.25246
C          C       0.14740   0.12154   0.22080  -0.31650
C          C       0.56605   0.35596   0.53792   0.58575
C          C       0.53412   0.42922   0.52132  -0.32064
C          C       0.37658   0.54744   0.52801   0.26102
C          C       0.42402   0.11765   0.65301   0.61993
C          C       0.21740   0.12745   0.85351  -0.31140
C          C       0.35079   0.05685   0.75007   0.24036
C          C       0.28422   0.06017   0.81689   0.24116
C          C       0.70040   0.09841   0.97467   0.67593
C          C       0.29183   0.18943   0.75927   0.25001
C          C       0.14416   0.13027   0.92134   0.62212
C          C       0.09096   0.47593   0.05373   0.31937
C          C       0.62155   0.03021   0.93291  -0.52672
C          C       0.21744   0.19172   0.82471   0.25326
C          C       0.35481   0.12148   0.72194  -0.31674
C          C       0.93349   0.35592   0.03779   0.58561
C          C       0.96577   0.42912   0.02108  -0.32095
C          C       0.12354   0.54734   0.02818   0.26049
C          C       0.92273   0.88219   0.84799   0.61923
C          C       0.71746   0.87264   0.64715  -0.31314
C          C       0.84996   0.94309   0.75099   0.23963
C          C       0.78376   0.93995   0.68411   0.24257
C          C       0.20034   0.90149   0.52494   0.67853
C          C       0.78829   0.81071   0.74192   0.25042
C          C       0.64416   0.87002   0.57932   0.62154
C          C       0.59224   0.52422   0.44683   0.31832
C          C       0.12115   0.96930   0.56698  -0.52877
C          C       0.71644   0.80828   0.67584   0.25260
C          C       0.85259   0.87845   0.77920  -0.31621
C          C       0.43394   0.64404   0.46208   0.58607
C          C       0.46587   0.57078   0.47868  -0.32090
C          C       0.62341   0.45256   0.47200   0.26098
O          O       0.83968   0.92701   0.05152  -0.58000
O          O       0.55989   0.82198   0.36824  -0.53858
O          O       0.93077   0.81108   0.05138  -0.53434
O          O       0.53766   0.94805   0.38129  -0.57436
O          O       0.18169   0.91140   0.98669  -0.64393
O          O       0.18264   0.68136   0.99360  -0.56245
O          O       0.98458   0.67361   0.92264  -0.50315
O          O       0.84827   0.74457   0.14469  -0.32994
O          O       0.59119   0.00834   0.28288  -0.36896
O          O       0.82974   0.53716   0.89912  -0.29218
O          O       0.71157   0.00203   0.15874  -0.35906
O          O       0.70456   0.74770   0.26324  -0.32168
O          O       0.75837   0.41527   0.94202  -0.34340
O          O       0.34110   0.83707   0.02671  -0.50952
O          O       0.33950   0.07262   0.44764  -0.57800
O          O       0.06049   0.17817   0.13096  -0.53800
O          O       0.43137   0.18857   0.44787  -0.53385
O          O       0.03821   0.05208   0.11772  -0.57269
O          O       0.68017   0.08834   0.51242  -0.64412
O          O       0.68322   0.31901   0.50740  -0.56357
O          O       0.48267   0.32607   0.57663  -0.50221
O          O       0.34831   0.25547   0.35547  -0.33034
O          O       0.09133   0.99187   0.21594  -0.36890
O          O       0.32565   0.46235   0.59918  -0.29039
O          O       0.21187   0.99768   0.34003  -0.36169
O          O       0.21161   0.25195   0.23507  -0.32213
O          O       0.25937   0.58508   0.55847  -0.34357
O          O       0.84180   0.16323   0.47489  -0.50947
O          O       0.16032   0.07299   0.94848  -0.57977
O          O       0.44011   0.17802   0.63176  -0.53876
O          O       0.06922   0.18892   0.94862  -0.53446
O          O       0.46234   0.05194   0.61871  -0.57425
O          O       0.81831   0.08859   0.01331  -0.64390
O          O       0.81736   0.31863   0.00640  -0.56230
O          O       0.01542   0.32638   0.07736  -0.50294
O          O       0.15173   0.25543   0.85531  -0.33016
O          O       0.40881   0.99166   0.71712  -0.36873
O          O       0.17025   0.46283   0.10088  -0.29196
O          O       0.28842   0.99797   0.84126  -0.35895
O          O       0.29543   0.25230   0.73676  -0.32151
O          O       0.24163   0.58473   0.05798  -0.34327
O          O       0.65889   0.16293   0.97329  -0.50976
O          O       0.66050   0.92738   0.55236  -0.57832
O          O       0.93950   0.82183   0.86904  -0.53778
O          O       0.56862   0.81143   0.55213  -0.53368
O          O       0.96179   0.94791   0.88228  -0.57277
O          O       0.31983   0.91166   0.48759  -0.64444
O          O       0.31677   0.68099   0.49260  -0.56343
O          O       0.51733   0.67392   0.42338  -0.50271
O          O       0.65169   0.74453   0.64454  -0.33014
O          O       0.90867   0.00813   0.78407  -0.36922
O          O       0.67434   0.53765   0.40083  -0.29073
O          O       0.78813   0.00231   0.65997  -0.36185
O          O       0.78839   0.74805   0.76493  -0.32169
O          O       0.74063   0.41492   0.44154  -0.34396
O          O       0.15820   0.83677   0.52511  -0.50921

