data_crystal

_audit_creation_method 'AiiDA-DDEC plugin'

_cell_length_a         7.29151
_cell_length_b        19.00348
_cell_length_c        19.34114

_cell_angle_alpha     89.83995
_cell_angle_beta     92.25570
_cell_angle_gamma     90.10890

_symmetry_space_group_name_Hall 'P 1'
_symmetry_space_group_name_H-M  'P 1'

loop_
_symmetry_equiv_pos_as_xyz
 'x,y,z'

loop_
_atom_site_label
_atom_site_type_symbol
_atom_site_fract_x
_atom_site_fract_y
_atom_site_fract_z
_atom_site_charge
Cd         Cd      0.56873   0.26549   0.34651   1.06540
Cd         Cd      0.00508   0.24064   0.31567   1.05503
Cd         Cd      0.92935   0.76738   0.15385   1.06434
Cd         Cd      0.49376   0.74002   0.18358   1.05538
Cd         Cd      0.43127   0.73451   0.65349   1.06536
Cd         Cd      0.99492   0.75936   0.68433   1.05507
Cd         Cd      0.07065   0.23262   0.84615   1.06433
Cd         Cd      0.50624   0.25998   0.81641   1.05533
H          H       0.12526   0.07578   0.22242   0.35635
H          H       0.39381   0.17505   0.65267   0.36245
H          H       0.89333   0.00541   0.21587   0.12784
H          H       0.41734   0.13785   0.23804   0.12078
H          H       0.35303   0.92512   0.16428   0.13958
H          H       0.62213   0.21443   0.58469   0.12920
H          H       0.10863   0.17950   0.71627   0.11043
H          H       0.14255   0.17373   0.49569   0.14022
H          H       0.37389   0.57571   0.27777   0.35684
H          H       0.10787   0.67058   0.84811   0.36377
H          H       0.60407   0.50423   0.28434   0.12735
H          H       0.07942   0.63729   0.26058   0.12161
H          H       0.14533   0.42451   0.33499   0.13834
H          H       0.87629   0.71788   0.91602   0.13005
H          H       0.39442   0.67868   0.78391   0.11285
H          H       0.35726   0.67063   0.00438   0.14039
H          H       0.87474   0.92422   0.77757   0.35640
H          H       0.60619   0.82495   0.34733   0.35968
H          H       0.10667   0.99459   0.78412   0.12782
H          H       0.58267   0.86215   0.76195   0.12082
H          H       0.64697   0.07488   0.83572   0.13958
H          H       0.37787   0.78557   0.41531   0.12913
H          H       0.89137   0.82050   0.28373   0.11052
H          H       0.85745   0.82627   0.50431   0.14015
H          H       0.62611   0.42429   0.72223   0.35675
H          H       0.89213   0.32942   0.15189   0.36364
H          H       0.39593   0.49577   0.71566   0.12742
H          H       0.92058   0.36271   0.73942   0.12154
H          H       0.85467   0.57549   0.66501   0.13839
H          H       0.12371   0.28212   0.08398   0.13001
H          H       0.60558   0.32133   0.21609   0.11277
H          H       0.64274   0.32937   0.99562   0.14050
C          C       0.78659   0.13741   0.25469   0.60260
C          C       0.66794   0.07841   0.22982  -0.02364
C          C       0.74645   0.01399   0.21185  -0.13057
C          C       0.47648   0.08733   0.22498  -0.21991
C          C       0.63192   0.95918   0.18788  -0.02223
C          C       0.44150   0.96774   0.18284  -0.18431
C          C       0.36255   0.03147   0.20281   0.31917
C          C       0.71294   0.89039   0.16904   0.58675
C          C       0.79847   0.20475   0.46041   0.60535
C          C       0.87360   0.19509   0.53300  -0.02279
C          C       0.76770   0.20338   0.59127  -0.12384
C          C       0.85361   0.19929   0.65779  -0.03026
C          C       0.04307   0.18573   0.66535  -0.20791
C          C       0.14750   0.17684   0.60667   0.32078
C          C       0.06133   0.18104   0.54093  -0.18147
C          C       0.73899   0.21251   0.71811   0.60097
C          C       0.71140   0.63639   0.24481   0.60174
C          C       0.82959   0.57728   0.26969  -0.02176
C          C       0.75104   0.51276   0.28810  -0.12983
C          C       0.02105   0.58658   0.27415  -0.22053
C          C       0.86571   0.45785   0.31177  -0.02187
C          C       0.05617   0.46684   0.31635  -0.18496
C          C       0.13520   0.53091   0.29652   0.31937
C          C       0.78475   0.38876   0.33055   0.58410
C          C       0.70025   0.70606   0.03978   0.60489
C          C       0.62533   0.69588   0.96745  -0.02149
C          C       0.73128   0.70550   0.90943  -0.12177
C          C       0.64592   0.70089   0.84298  -0.03143
C          C       0.45793   0.68508   0.83508  -0.20812
C          C       0.35404   0.67389   0.89354   0.32154
C          C       0.43880   0.67926   0.95937  -0.18483
C          C       0.76080   0.71417   0.78285   0.60030
C          C       0.21341   0.86259   0.74531   0.60272
C          C       0.33206   0.92159   0.77018  -0.02373
C          C       0.25355   0.98601   0.78814  -0.13061
C          C       0.52352   0.91267   0.77502  -0.21981
C          C       0.36809   0.04083   0.81212  -0.02219
C          C       0.55850   0.03227   0.81715  -0.18424
C          C       0.63745   0.96853   0.79719   0.31910
C          C       0.28706   0.10961   0.83096   0.58666
C          C       0.20154   0.79525   0.53958   0.60555
C          C       0.12640   0.80491   0.46699  -0.02296
C          C       0.23230   0.79663   0.40873  -0.12376
C          C       0.14639   0.80071   0.34221  -0.03016
C          C       0.95693   0.81427   0.33464  -0.20801
C          C       0.85250   0.82316   0.39333   0.32092
C          C       0.93867   0.81896   0.45907  -0.18161
C          C       0.26101   0.78749   0.28189   0.60082
C          C       0.28860   0.36361   0.75519   0.60184
C          C       0.17041   0.42272   0.73031  -0.02183
C          C       0.24896   0.48724   0.71189  -0.12985
C          C       0.97895   0.41342   0.72585  -0.22053
C          C       0.13429   0.54215   0.68823  -0.02184
C          C       0.94383   0.53316   0.68365  -0.18494
C          C       0.86480   0.46909   0.70348   0.31935
C          C       0.21526   0.61124   0.66945   0.58399
C          C       0.29975   0.29394   0.96022   0.60477
C          C       0.37468   0.30413   0.03254  -0.02141
C          C       0.26872   0.29450   0.09056  -0.12177
C          C       0.35408   0.29911   0.15702  -0.03153
C          C       0.54207   0.31492   0.16491  -0.20801
C          C       0.64596   0.32611   0.10646   0.32139
C          C       0.56120   0.32074   0.04062  -0.18472
C          C       0.23920   0.28583   0.21714   0.60048
O          O       0.71206   0.19760   0.26720  -0.63485
O          O       0.96028   0.12984   0.26352  -0.54044
O          O       0.88567   0.88060   0.18031  -0.52820
O          O       0.60839   0.84258   0.14227  -0.62223
O          O       0.90745   0.19114   0.41253  -0.59028
O          O       0.17673   0.03491   0.19809  -0.44424
O          O       0.63147   0.22629   0.45111  -0.54288
O          O       0.56506   0.20821   0.71145  -0.53135
O          O       0.80684   0.23363   0.77841  -0.61015
O          O       0.33043   0.16336   0.60808  -0.45234
O          O       0.78701   0.69658   0.23247  -0.63533
O          O       0.53755   0.62888   0.23602  -0.54019
O          O       0.61235   0.37853   0.31865  -0.52563
O          O       0.88884   0.34097   0.35782  -0.62046
O          O       0.59245   0.69112   0.08783  -0.58959
O          O       0.32102   0.53473   0.30192  -0.44520
O          O       0.86579   0.72923   0.04887  -0.54295
O          O       0.93416   0.70836   0.79030  -0.53161
O          O       0.69416   0.73609   0.72245  -0.61032
O          O       0.17298   0.65669   0.89169  -0.45414
O          O       0.28794   0.80241   0.73280  -0.63493
O          O       0.03973   0.87016   0.73648  -0.54050
O          O       0.11433   0.11940   0.81968  -0.52821
O          O       0.39161   0.15742   0.85773  -0.62223
O          O       0.09255   0.80886   0.58747  -0.59039
O          O       0.82327   0.96509   0.80191  -0.44425
O          O       0.36853   0.77371   0.54888  -0.54284
O          O       0.43494   0.79179   0.28855  -0.53031
O          O       0.19316   0.76638   0.22158  -0.61002
O          O       0.66957   0.83664   0.39192  -0.45039
O          O       0.21299   0.30342   0.76753  -0.63536
O          O       0.46245   0.37112   0.76397  -0.54015
O          O       0.38765   0.62147   0.68135  -0.52559
O          O       0.11116   0.65903   0.64218  -0.62032
O          O       0.40755   0.30888   0.91217  -0.58937
O          O       0.67898   0.46527   0.69808  -0.44514
O          O       0.13421   0.27077   0.95113  -0.54302
O          O       0.06584   0.29164   0.20970  -0.53161
O          O       0.30584   0.26391   0.27755  -0.61059
O          O       0.82702   0.34331   0.10831  -0.45394

