data_crystal

_audit_creation_method 'AiiDA-DDEC plugin'

_cell_length_a         7.42311
_cell_length_b        12.06752
_cell_length_c        17.62211

_cell_angle_alpha     90.00000
_cell_angle_beta     90.00000
_cell_angle_gamma     90.28989

_symmetry_space_group_name_Hall 'P 1'
_symmetry_space_group_name_H-M  'P 1'

loop_
_symmetry_equiv_pos_as_xyz
 'x,y,z'

loop_
_atom_site_label
_atom_site_type_symbol
_atom_site_fract_x
_atom_site_fract_y
_atom_site_fract_z
_atom_site_charge
Zn         Zn      0.75022   0.25144   0.75000   1.03190
Zn         Zn      0.75003   0.74968   0.25000   1.03011
Zn         Zn      0.24978   0.74855   0.25000   1.03196
Zn         Zn      0.24996   0.25032   0.75000   1.03016
H          H       0.36232   0.54790   0.81161   0.10380
H          H       0.25609   0.74116   0.81105   0.09831
H          H       0.25992   0.85263   0.92975   0.10398
H          H       0.36233   0.77120   0.04953   0.11655
H          H       0.13864   0.04712   0.18842   0.10434
H          H       0.24465   0.24117   0.18966   0.09718
H          H       0.24130   0.35345   0.07139   0.10385
H          H       0.13727   0.27251   0.95147   0.11620
H          H       0.63768   0.45210   0.31161   0.10371
H          H       0.74391   0.25884   0.31105   0.09829
H          H       0.74008   0.14736   0.42975   0.10401
H          H       0.63766   0.22880   0.54953   0.11670
H          H       0.86136   0.95288   0.68841   0.10420
H          H       0.75535   0.75883   0.68966   0.09724
H          H       0.75870   0.64654   0.57139   0.10388
H          H       0.86273   0.72748   0.45147   0.11628
H          H       0.63768   0.45210   0.18839   0.10369
H          H       0.74391   0.25884   0.18895   0.09826
H          H       0.74008   0.14736   0.07025   0.10404
H          H       0.63766   0.22880   0.95047   0.11669
H          H       0.86136   0.95288   0.81158   0.10439
H          H       0.75535   0.75883   0.81034   0.09734
H          H       0.75869   0.64654   0.92861   0.10391
H          H       0.86273   0.72748   0.04853   0.11617
H          H       0.36232   0.54789   0.68839   0.10369
H          H       0.25609   0.74116   0.68895   0.09821
H          H       0.25992   0.85263   0.57025   0.10401
H          H       0.36233   0.77120   0.45047   0.11669
H          H       0.13863   0.04712   0.31159   0.10436
H          H       0.24465   0.24117   0.31034   0.09723
H          H       0.24130   0.35345   0.42861   0.10384
H          H       0.13727   0.27252   0.54852   0.11613
C          C       0.50102   0.43768   0.93228  -0.12387
C          C       0.42920   0.54578   0.93159   0.05227
C          C       0.36404   0.59626   0.86357  -0.14454
C          C       0.30499   0.70393   0.86332  -0.08064
C          C       0.30646   0.76739   0.93106  -0.06787
C          C       0.36396   0.72157   0.99805  -0.12654
C          C       0.42801   0.61007   0.00095   0.05242
C          C       0.50053   0.37092   0.86041   0.63621
C          C      -0.00016   0.93692   0.06750  -0.12478
C          C       0.07108   0.04563   0.06850   0.05243
C          C       0.13657   0.09596   0.13666  -0.14492
C          C       0.19563   0.20400   0.13730  -0.08022
C          C       0.19407   0.26805   0.06983  -0.06861
C          C       0.13588   0.22247   0.00275  -0.12700
C          C       0.07157   0.11065  -0.00057   0.05198
C          C       0.00009   0.87025   0.13954   0.63872
C          C       0.49897   0.56232   0.43228  -0.12360
C          C       0.57079   0.45421   0.43159   0.05211
C          C       0.63596   0.40374   0.36358  -0.14455
C          C       0.69501   0.29607   0.36332  -0.08071
C          C       0.69354   0.23261   0.43106  -0.06773
C          C       0.63604   0.27843   0.49805  -0.12654
C          C       0.57199   0.38992   0.50095   0.05253
C          C       0.49946   0.62907   0.36042   0.63597
C          C       0.00016   0.06308   0.56750  -0.12477
C          C       0.92892   0.95437   0.56850   0.05240
C          C       0.86343   0.90404   0.63666  -0.14480
C          C       0.80437   0.79599   0.63729  -0.08042
C          C       0.80592   0.73195   0.56982  -0.06841
C          C       0.86411   0.77753   0.50275  -0.12698
C          C       0.92843   0.88935   0.49942   0.05213
C          C      -0.00008   0.12975   0.63954   0.63873
C          C       0.49897   0.56232   0.06772  -0.12392
C          C       0.57079   0.45421   0.06841   0.05235
C          C       0.63596   0.40374   0.13642  -0.14476
C          C       0.69501   0.29607   0.13667  -0.08063
C          C       0.69354   0.23261   0.06894  -0.06783
C          C       0.63604   0.27843   0.00195  -0.12650
C          C       0.57199   0.38992  -0.00095   0.05246
C          C       0.49946   0.62907   0.13958   0.63610
C          C       0.00016   0.06308   0.93250  -0.12467
C          C       0.92892   0.95437   0.93150   0.05217
C          C       0.86344   0.90404   0.86334  -0.14471
C          C       0.80437   0.79599   0.86270  -0.08017
C          C       0.80593   0.73195   0.93017  -0.06855
C          C       0.86412   0.77753   0.99724  -0.12702
C          C       0.92843   0.88935   0.00057   0.05203
C          C      -0.00007   0.12975   0.86046   0.63866
C          C       0.50103   0.43768   0.56772  -0.12386
C          C       0.42921   0.54578   0.56840   0.05237
C          C       0.36404   0.59626   0.63642  -0.14478
C          C       0.30499   0.70393   0.63667  -0.08073
C          C       0.30646   0.76739   0.56894  -0.06792
C          C       0.36396   0.72157   0.50195  -0.12648
C          C       0.42801   0.61007   0.49905   0.05250
C          C       0.50053   0.37092   0.63958   0.63634
C          C      -0.00016   0.93692   0.43250  -0.12472
C          C       0.07107   0.04563   0.43150   0.05233
C          C       0.13656   0.09596   0.36334  -0.14482
C          C       0.19562   0.20400   0.36270  -0.08022
C          C       0.19407   0.26805   0.43017  -0.06857
C          C       0.13588   0.22247   0.49725  -0.12700
C          C       0.07156   0.11065   0.50057   0.05211
C          C       0.00008   0.87025   0.36046   0.63878
O          O       0.65391   0.34518   0.83342  -0.56641
O          O       0.34648   0.34496   0.83353  -0.56727
O          O       0.84639   0.84459   0.16664  -0.56686
O          O       0.15373   0.84460   0.16663  -0.57004
O          O       0.34609   0.65481   0.33343  -0.56615
O          O       0.65352   0.65504   0.33353  -0.56733
O          O       0.15360   0.15541   0.66664  -0.56675
O          O       0.84626   0.15540   0.66663  -0.57014
O          O       0.34609   0.65481   0.16657  -0.56621
O          O       0.65352   0.65504   0.16647  -0.56732
O          O       0.15360   0.15541   0.83336  -0.56671
O          O       0.84626   0.15540   0.83337  -0.57011
O          O       0.65392   0.34518   0.66657  -0.56648
O          O       0.34649   0.34496   0.66647  -0.56735
O          O       0.84639   0.84459   0.33336  -0.56686
O          O       0.15373   0.84460   0.33337  -0.57007

