data_crystal

_audit_creation_method 'AiiDA-DDEC plugin'

_cell_length_a         9.75341
_cell_length_b        10.45192
_cell_length_c        15.54957

_cell_angle_alpha     90.12332
_cell_angle_beta     98.54184
_cell_angle_gamma     90.00670

_symmetry_space_group_name_Hall 'P 1'
_symmetry_space_group_name_H-M  'P 1'

loop_
_symmetry_equiv_pos_as_xyz
 'x,y,z'

loop_
_atom_site_label
_atom_site_type_symbol
_atom_site_fract_x
_atom_site_fract_y
_atom_site_fract_z
_atom_site_charge
Gd         Gd      0.23184   0.10752   0.39921   2.04699
Gd         Gd      0.26845   0.60723   0.10102   2.04780
Gd         Gd      0.76815   0.89247   0.60079   2.04700
Gd         Gd      0.73155   0.39277   0.89898   2.04783
P          P       0.17512   0.85944   0.22894   1.39082
P          P       0.32393   0.35911   0.27008   1.38820
P          P       0.82488   0.14056   0.77106   1.39086
P          P       0.67606   0.64089   0.72992   1.38821
H          H       0.33131   0.87726   0.91936   0.14306
H          H       0.40080   0.11168   0.92079   0.13530
H          H       0.30158   0.26080   0.02332   0.12121
H          H       0.14466   0.17039   0.12136   0.14502
H          H       0.00593   0.83817   0.10067   0.17195
H          H       0.99409   0.99005   0.15308   0.17100
H          H       0.04877   0.83080   0.32967   0.38804
H          H       0.16648   0.37887   0.57937   0.14502
H          H       0.09953   0.61368   0.57918   0.13385
H          H       0.20070   0.76266   0.47776   0.12107
H          H       0.35572   0.67146   0.37867   0.14630
H          H       0.49248   0.33867   0.39915   0.17254
H          H       0.50502   0.49007   0.34650   0.17172
H          H       0.45348   0.33304   0.17080   0.38709
H          H       0.66868   0.12274   0.08064   0.14307
H          H       0.59920   0.88832   0.07921   0.13538
H          H       0.69842   0.73919   0.97668   0.12124
H          H       0.85533   0.82961   0.87865   0.14498
H          H       0.99406   0.16183   0.89933   0.17193
H          H       0.00590   0.00995   0.84692   0.17100
H          H       0.95123   0.16920   0.67033   0.38798
H          H       0.83352   0.62113   0.42063   0.14488
H          H       0.90047   0.38632   0.42082   0.13382
H          H       0.79930   0.23734   0.52225   0.12118
H          H       0.64428   0.32854   0.62133   0.14641
H          H       0.50752   0.66133   0.60086   0.17253
H          H       0.49498   0.50992   0.65350   0.17179
H          H       0.54652   0.66696   0.82920   0.38711
C          C       0.29368   0.94925   0.96056  -0.04165
C          C       0.32933   0.07750   0.96310  -0.11842
C          C       0.27534   0.15980   0.02057  -0.03358
C          C       0.18675   0.10995   0.07451  -0.14500
C          C       0.15183   0.98054   0.07180   0.18791
C          C       0.06523   0.91970   0.13140  -0.55071
C          C       0.54221   0.03542   0.46860   0.49847
C          C       0.00560   0.06239   0.52681   0.50839
C          C       0.20512   0.45056   0.53854  -0.04485
C          C       0.17059   0.57909   0.53664  -0.11419
C          C       0.22539   0.66133   0.47968  -0.03544
C          C       0.31310   0.61110   0.42519  -0.14763
C          C       0.34698   0.48152   0.42732   0.19096
C          C       0.43361   0.41993   0.36794  -0.55315
C          C       0.95793   0.53679   0.03104   0.49812
C          C       0.49176   0.56072   0.97174   0.50538
C          C       0.70632   0.05075   0.03944  -0.04161
C          C       0.67067   0.92249   0.03690  -0.11842
C          C       0.72466   0.84020   0.97943  -0.03354
C          C       0.81324   0.89005   0.92549  -0.14503
C          C       0.84817   0.01946   0.92820   0.18810
C          C       0.93476   0.08030   0.86860  -0.55093
C          C       0.45777   0.96459   0.53138   0.49874
C          C       0.99440   0.93762   0.47318   0.50740
C          C       0.79487   0.54944   0.46146  -0.04467
C          C       0.82941   0.42091   0.46336  -0.11437
C          C       0.77460   0.33867   0.52033  -0.03552
C          C       0.68690   0.38890   0.57481  -0.14761
C          C       0.65302   0.51848   0.57269   0.19099
C          C       0.56638   0.58007   0.63206  -0.55313
C          C       0.04207   0.46321   0.96896   0.49821
C          C       0.50824   0.43928   0.02826   0.50536
N          N       0.20700   0.90198   0.01432   0.29979
N          N       0.29186   0.40320   0.48469   0.29896
N          N       0.79300   0.09802   0.98568   0.29971
N          N       0.70814   0.59680   0.51531   0.29875
O          O       0.23593   0.97369   0.28230  -0.86341
O          O       0.07109   0.77988   0.27828  -0.64527
O          O       0.28238   0.76876   0.19980  -0.85465
O          O       0.17366   0.77922   0.00907  -0.58817
O          O       0.67344   0.02607   0.48505  -0.61061
O          O       0.47422   0.09686   0.40666  -0.56013
O          O       0.06524   0.15661   0.49819  -0.59135
O          O       0.95110   0.05825   0.59652  -0.60387
O          O       0.26379   0.47351   0.21695  -0.86309
O          O       0.42723   0.27988   0.22001  -0.64336
O          O       0.21724   0.26751   0.29863  -0.85226
O          O       0.32596   0.28059   0.48946  -0.58884
O          O       0.82656   0.53165   0.01272  -0.61198
O          O       0.02621   0.59600   0.09425  -0.55968
O          O       0.43189   0.65584  -0.00064  -0.58856
O          O       0.54260   0.55287   0.90079  -0.60510
O          O       0.76406   0.02632   0.71769  -0.86330
O          O       0.92891   0.22012   0.72172  -0.64538
O          O       0.71762   0.23124   0.80020  -0.85458
O          O       0.82633   0.22078   0.99093  -0.58826
O          O       0.32657   0.97393   0.51495  -0.61033
O          O       0.52579   0.90313   0.59335  -0.56045
O          O       0.93473   0.84337   0.50181  -0.59121
O          O       0.04888   0.94174   0.40350  -0.60322
O          O       0.73620   0.52649   0.78305  -0.86311
O          O       0.57277   0.72012   0.77999  -0.64330
O          O       0.78276   0.73249   0.70137  -0.85237
O          O       0.67403   0.71941   0.51054  -0.58875
O          O       0.17344   0.46835   0.98728  -0.61207
O          O       0.97379   0.40399   0.90574  -0.55974
O          O       0.56810   0.34416   0.00064  -0.58856
O          O       0.45739   0.44713   0.09921  -0.60504

