data_crystal

_audit_creation_method 'AiiDA-DDEC plugin'

_cell_length_a        12.19605
_cell_length_b        13.62735
_cell_length_c        16.23322

_cell_angle_alpha     89.99699
_cell_angle_beta     90.05155
_cell_angle_gamma     89.86310

_symmetry_space_group_name_Hall 'P 1'
_symmetry_space_group_name_H-M  'P 1'

loop_
_symmetry_equiv_pos_as_xyz
 'x,y,z'

loop_
_atom_site_label
_atom_site_type_symbol
_atom_site_fract_x
_atom_site_fract_y
_atom_site_fract_z
_atom_site_charge
U          U       0.33412   0.95041   0.59803   1.99215
U          U       0.16573   0.55085   0.09744   1.99580
U          U       0.33442   0.04966   0.90230   1.99837
U          U       0.16731   0.44981   0.40232   1.98278
U          U       0.66489   0.05022   0.40130   1.99945
U          U       0.83396   0.44871   0.90254   1.99030
U          U       0.66529   0.95004   0.09858   1.99605
U          U       0.83254   0.55019   0.59827   1.99425
H          H       0.56992   0.85072   0.30547   0.10315
H          H       0.44687   0.75587   0.20159   0.13440
H          H       0.93026   0.64960   0.80503   0.10484
H          H       0.05414   0.74451   0.70235   0.13430
H          H       0.57080   0.14907   0.19500   0.10228
H          H       0.44692   0.24422   0.29804   0.13406
H          H       0.92910   0.35101   0.69451   0.10359
H          H       0.05384   0.25575   0.79729   0.13249
H          H       0.42979   0.14917   0.69434   0.10371
H          H       0.55248   0.24379   0.79836   0.13303
H          H       0.07046   0.35088   0.19440   0.10446
H          H       0.94668   0.25524   0.29699   0.13505
H          H       0.42917   0.85130   0.80563   0.10308
H          H       0.55263   0.75617   0.70201   0.13346
H          H       0.07106   0.64909   0.30527   0.10553
H          H       0.94618   0.74444   0.20308   0.13337
C          C       0.50458   0.85604   0.47460   0.53368
C          C       0.46758   0.80028   0.40676  -0.17303
C          C       0.50004   0.80767   0.32305  -0.14460
C          C       0.43477   0.75729   0.26809  -0.11391
C          C       0.35110   0.70399   0.30794  -0.15072
C          C       0.27144   0.64118   0.27436   0.60186
C          C       0.99448   0.64331   0.97367   0.53589
C          C       0.03260   0.69983   0.90700  -0.17233
C          C      -0.00018   0.69325   0.82329  -0.13951
C          C       0.06586   0.74299   0.76905  -0.11306
C          C       0.15023   0.79569   0.80891  -0.15210
C          C       0.22925   0.85856   0.77420   0.59810
C          C       0.50347   0.14440   0.02576   0.53661
C          C       0.46689   0.19998   0.09342  -0.17451
C          C       0.50064   0.19187   0.17678  -0.14348
C          C       0.43528   0.24224   0.23170  -0.11437
C          C       0.35122   0.29565   0.19187  -0.15197
C          C       0.27194   0.35914   0.22533   0.60013
C          C       0.99574   0.35618   0.52627   0.54001
C          C       0.03283   0.29970   0.59329  -0.17422
C          C      -0.00081   0.30736   0.67653  -0.14076
C          C       0.06512   0.25726   0.73076  -0.11358
C          C       0.14993   0.20439   0.69116  -0.15362
C          C       0.22908   0.14162   0.72655   0.59276
C          C       0.49643   0.14532   0.52536   0.53600
C          C       0.53315   0.20015   0.59351  -0.17357
C          C       0.49973   0.19217   0.67681  -0.14279
C          C       0.56488   0.24203   0.73196  -0.11375
C          C       0.64863   0.29537   0.69222  -0.15201
C          C       0.72780   0.35876   0.72529   0.59906
C          C       0.00569   0.35633   0.02538   0.53192
C          C       0.96791   0.30013   0.09252  -0.17222
C          C       0.00063   0.30755   0.17622  -0.14331
C          C       0.93483   0.25737   0.23055  -0.11264
C          C       0.85096   0.20407   0.19093  -0.15036
C          C       0.77212   0.14167   0.22712   0.59834
C          C       0.49668   0.85532   0.97521   0.52943
C          C       0.53256   0.80028   0.90683  -0.17131
C          C       0.49942   0.80835   0.82329  -0.14684
C          C       0.56490   0.75807   0.76846  -0.11207
C          C       0.64871   0.70451   0.80843  -0.15409
C          C       0.72872   0.64171   0.77497   0.60169
C          C       0.00379   0.64361   0.47343   0.54357
C          C       0.96728   0.70014   0.40650  -0.17489
C          C       0.00091   0.69241   0.32334  -0.14002
C          C       0.93481   0.74260   0.26943  -0.11532
C          C       0.85055   0.79554   0.30928  -0.15142
C          C       0.77170   0.85845   0.27400   0.59402
S          S       0.35748   0.71762   0.41558   0.05870
S          S       0.14299   0.78237   0.91668   0.05114
S          S       0.35689   0.28262   0.08450   0.06463
S          S       0.14339   0.21766   0.58352   0.05717
S          S       0.64282   0.28234   0.58486   0.06374
S          S       0.85716   0.21765   0.08340   0.05213
S          S       0.64265   0.71786   0.91582   0.06154
S          S       0.85662   0.78178   0.41666   0.05923
O          O       0.46282   0.83994   0.54941  -0.69151
O          O       0.57549   0.92766   0.46468  -0.71581
O          O       0.22672   0.57391   0.32052  -0.73152
O          O       0.24108   0.64805   0.19688  -0.69950
O          O       0.03318   0.65805   0.04938  -0.69521
O          O       0.92418   0.57216   0.96060  -0.71062
O          O       0.27537   0.92597   0.81965  -0.73804
O          O       0.25837   0.85033   0.69640  -0.69576
O          O       0.46320   0.16074   0.95073  -0.69400
O          O       0.57305   0.07183   0.03610  -0.71604
O          O       0.22758   0.42737   0.17972  -0.73629
O          O       0.24208   0.35157   0.30296  -0.69392
O          O       0.03698   0.34185   0.45142  -0.69715
O          O       0.92398   0.42661   0.53698  -0.71179
O          O       0.27607   0.07353   0.68183  -0.74073
O          O       0.25788   0.15043   0.80444  -0.69496
O          O       0.53719   0.16262   0.45061  -0.69833
O          O       0.42726   0.07267   0.53533  -0.71625
O          O       0.77161   0.42663   0.67889  -0.73680
O          O       0.75800   0.35158   0.80275  -0.70085
O          O       0.96552   0.34146   0.94999  -0.69372
O          O       0.07799   0.42655   0.03664  -0.71100
O          O       0.72591   0.07242   0.18407  -0.73992
O          O       0.74398   0.15241   0.30492  -0.69159
O          O       0.53760   0.83759   0.04998  -0.69179
O          O       0.42752   0.92845   0.96539  -0.71650
O          O       0.77395   0.57394   0.82052  -0.73424
O          O       0.75857   0.64949   0.69740  -0.69942
O          O       0.96284   0.65784   0.54835  -0.69878
O          O       0.07542   0.57301   0.46303  -0.71343
O          O       0.72502   0.92653   0.31843  -0.73622
O          O       0.74377   0.85015   0.19580  -0.69724

