data_crystal

_audit_creation_method 'AiiDA-DDEC plugin'

_cell_length_a        11.91636
_cell_length_b        14.14950
_cell_length_c        13.89764

_cell_angle_alpha     90.00000
_cell_angle_beta     114.93638
_cell_angle_gamma     90.00000

_symmetry_space_group_name_Hall 'P 1'
_symmetry_space_group_name_H-M  'P 1'

loop_
_symmetry_equiv_pos_as_xyz
 'x,y,z'

loop_
_atom_site_label
_atom_site_type_symbol
_atom_site_fract_x
_atom_site_fract_y
_atom_site_fract_z
_atom_site_charge
Zn         Zn      0.61181   0.94445   0.04828   0.84073
Zn         Zn      0.38819   0.44445   0.45171   0.84084
Zn         Zn      0.38819   0.05555   0.95171   0.84069
Zn         Zn      0.61181   0.55555   0.54828   0.84087
H          H       0.51424   0.75047   0.26350   0.13234
H          H       0.17219   0.68722   0.28371   0.11714
H          H       0.19460   0.91993   0.09026   0.10923
H          H       0.96355   0.69430   0.15522   0.13023
H          H       0.74769   0.75089   0.10531   0.11177
H          H       0.84952   0.02996   0.10235   0.10187
H          H       0.07010   0.98594   0.15325   0.13036
H          H       0.48576   0.25047   0.23650   0.13238
H          H       0.82781   0.18722   0.21629   0.11448
H          H       0.80540   0.41993   0.40974   0.10923
H          H       0.03645   0.19430   0.34478   0.13026
H          H       0.25231   0.25089   0.39469   0.11163
H          H       0.15047   0.52996   0.39765   0.10186
H          H       0.92990   0.48595   0.34674   0.13040
H          H       0.48576   0.24953   0.73650   0.13244
H          H       0.82781   0.31278   0.71629   0.11445
H          H       0.80540   0.08007   0.90974   0.10920
H          H       0.03644   0.30570   0.84478   0.13025
H          H       0.25231   0.24911   0.89469   0.11157
H          H       0.15047   0.97004   0.89764   0.10185
H          H       0.92990   0.01405   0.84674   0.13041
H          H       0.51424   0.74953   0.76349   0.13226
H          H       0.17219   0.81278   0.78371   0.11446
H          H       0.19459   0.58007   0.59025   0.10929
H          H       0.96355   0.80570   0.65522   0.13024
H          H       0.74769   0.74911   0.60531   0.11174
H          H       0.84952   0.47004   0.60235   0.10192
H          H       0.07009   0.51405   0.65325   0.13037
C          C       0.42680   0.89722   0.11966   0.58361
C          C       0.35967   0.83992   0.17008  -0.02465
C          C       0.41693   0.76589   0.24050  -0.09278
C          C       0.34814   0.71123   0.28047  -0.01774
C          C       0.22276   0.73078   0.25084  -0.13622
C          C       0.16597   0.80793   0.18453   0.04167
C          C       0.23574   0.86135   0.14428  -0.14004
C          C       0.40895   0.63337   0.35854   0.58985
C          C       0.03671   0.83540   0.15785   0.12310
C          C       0.94317   0.76959   0.14567  -0.18902
C          C       0.82244   0.80042   0.11750   0.09489
C          C       0.87966   0.95659   0.11502   0.09142
C          C       0.00169   0.93122   0.14246  -0.19169
C          C       0.57319   0.39722   0.38034   0.58367
C          C       0.64033   0.33992   0.32991  -0.02466
C          C       0.58307   0.26590   0.25950  -0.09269
C          C       0.65185   0.21123   0.21953  -0.01757
C          C       0.77723   0.23078   0.24916  -0.13427
C          C       0.83403   0.30794   0.31547   0.04184
C          C       0.76425   0.36135   0.35571  -0.14011
C          C       0.59104   0.13337   0.14145   0.58996
C          C       0.96328   0.33540   0.34215   0.12306
C          C       0.05682   0.26959   0.35433  -0.18890
C          C       0.17756   0.30042   0.38250   0.09494
C          C       0.12034   0.45659   0.38498   0.09151
C          C      -0.00170   0.43122   0.35754  -0.19163
C          C       0.57319   0.10278   0.88034   0.58379
C          C       0.64033   0.16008   0.82991  -0.02470
C          C       0.58307   0.23410   0.75949  -0.09281
C          C       0.65185   0.28877   0.71953  -0.01751
C          C       0.77723   0.26922   0.74916  -0.13425
C          C       0.83403   0.19206   0.81547   0.04184
C          C       0.76425   0.13865   0.85571  -0.14009
C          C       0.59104   0.36663   0.64145   0.59001
C          C       0.96328   0.16460   0.84214   0.12310
C          C       0.05682   0.23041   0.85432  -0.18895
C          C       0.17756   0.19957   0.88250   0.09497
C          C       0.12034   0.04341   0.88498   0.09149
C          C      -0.00170   0.06877   0.85754  -0.19159
C          C       0.42680   0.60278   0.61966   0.58363
C          C       0.35967   0.66008   0.67008  -0.02463
C          C       0.41693   0.73410   0.74050  -0.09272
C          C       0.34814   0.78877   0.78047  -0.01758
C          C       0.22276   0.76922   0.75084  -0.13430
C          C       0.16596   0.69206   0.68452   0.04176
C          C       0.23574   0.63865   0.64428  -0.13995
C          C       0.40895   0.86663   0.85854   0.59001
C          C       0.03671   0.66460   0.65785   0.12318
C          C       0.94317   0.73041   0.64567  -0.18900
C          C       0.82244   0.69957   0.61750   0.09481
C          C       0.87966   0.54341   0.61502   0.09151
C          C       0.00169   0.56877   0.64245  -0.19168
N          N       0.79028   0.89256   0.10190  -0.20750
N          N       0.20972   0.39257   0.39809  -0.20762
N          N       0.20972   0.10743   0.89809  -0.20758
N          N       0.79027   0.60743   0.60190  -0.20750
O          O       0.36621   0.96615   0.06227  -0.56816
O          O       0.53636   0.87232   0.13641  -0.53276
O          O       0.52054   0.64736   0.42419  -0.53830
O          O       0.34216   0.56138   0.35297  -0.55940
O          O       0.63379   0.46615   0.43773  -0.56823
O          O       0.46364   0.37232   0.36359  -0.53270
O          O       0.47945   0.14736   0.07581  -0.53826
O          O       0.65784   0.06138   0.14703  -0.55939
O          O       0.63379   0.03385   0.93773  -0.56830
O          O       0.46364   0.12768   0.86358  -0.53270
O          O       0.47945   0.35264   0.57580  -0.53819
O          O       0.65784   0.43862   0.64703  -0.55947
O          O       0.36621   0.53385   0.56226  -0.56803
O          O       0.53636   0.62768   0.63641  -0.53294
O          O       0.52054   0.85264   0.92419  -0.53838
O          O       0.34216   0.93861   0.85296  -0.55929

