data_crystal

_audit_creation_method 'AiiDA-DDEC plugin'

_cell_length_a        10.16925
_cell_length_b        11.21978
_cell_length_c        16.80615

_cell_angle_alpha     96.40087
_cell_angle_beta     89.91180
_cell_angle_gamma     117.04443

_symmetry_space_group_name_Hall 'P 1'
_symmetry_space_group_name_H-M  'P 1'

loop_
_symmetry_equiv_pos_as_xyz
 'x,y,z'

loop_
_atom_site_label
_atom_site_type_symbol
_atom_site_fract_x
_atom_site_fract_y
_atom_site_fract_z
_atom_site_charge
Cd         Cd      0.14624   0.18823   0.02777   1.05756
Cd         Cd      0.95916   0.81187   0.47289   1.05740
Cd         Cd      0.85376   0.81177   0.97223   1.05749
Cd         Cd      0.04084   0.18813   0.52711   1.05734
Cd         Cd      0.50000   0.50000   0.00000   1.09561
Cd         Cd      0.00000   0.50000   0.50000   1.09532
H          H       0.09635   0.46557   0.25494   0.11001
H          H       0.53324   0.62769   0.16685   0.09230
H          H       0.16890   0.67712   0.34597   0.10425
H          H       0.60509   0.83946   0.25404   0.12097
H          H       0.20404   0.88024   0.34764   0.11424
H          H       0.66292   0.96830   0.37473   0.12515
H          H       0.51738   0.25083   0.48189   0.13915
H          H       0.62842   0.53327   0.24619   0.10989
H          H       0.90535   0.37376   0.33361   0.09238
H          H       0.49179   0.32241   0.15422   0.10379
H          H       0.76668   0.16203   0.24603   0.12064
H          H       0.32391   0.11905   0.15254   0.11454
H          H       0.69527   0.03175   0.12599   0.12430
H          H       0.26775   0.74990   0.01729   0.13900
H          H       0.90365   0.53443   0.74506   0.11004
H          H       0.46676   0.37231   0.83315   0.09223
H          H       0.83110   0.32288   0.65403   0.10428
H          H       0.39491   0.16054   0.74596   0.12096
H          H       0.79597   0.11976   0.65236   0.11430
H          H       0.33708   0.03170   0.62527   0.12506
H          H       0.48262   0.74917   0.51811   0.13916
H          H       0.37158   0.46673   0.75381   0.10993
H          H       0.09466   0.62624   0.66639   0.09231
H          H       0.50822   0.67759   0.84578   0.10382
H          H       0.23332   0.83797   0.75397   0.12058
H          H       0.67610   0.88095   0.84747   0.11461
H          H       0.30474   0.96825   0.87401   0.12417
H          H       0.73225   0.25010   0.98271   0.13900
C          C       0.25514   0.40497   0.14864   0.58161
C          C       0.30824   0.53186   0.20420  -0.04609
C          C       0.20749   0.54807   0.25597  -0.08058
C          C       0.45234   0.63771   0.20567  -0.08399
C          C       0.24855   0.66796   0.30586  -0.13063
C          C       0.49372   0.75812   0.25574  -0.12660
C          C       0.39136   0.77638   0.30560   0.08317
C          C       0.42849   0.90645   0.35485   0.06345
C          C       0.31658   0.94467   0.37206  -0.12735
C          C       0.57349   0.99513   0.38505  -0.11805
C          C       0.34718   0.06648   0.41887  -0.04078
C          C       0.60593   0.11958   0.42939  -0.03968
C          C       0.49271   0.15511   0.44671  -0.08465
C          C       0.22604   0.10074   0.44260   0.57972
C          C       0.76165   0.21819   0.45646   0.57649
C          C       0.84837   0.59430   0.35293   0.58063
C          C       0.77475   0.46794   0.29687  -0.04523
C          C       0.65787   0.45138   0.24505  -0.07966
C          C       0.81408   0.36293   0.29487  -0.08536
C          C       0.58016   0.33180   0.19463  -0.13110
C          C       0.73581   0.24271   0.24453  -0.12539
C          C       0.61513   0.22382   0.19468   0.08243
C          C       0.52258   0.09356   0.14535   0.06267
C          C       0.37246   0.05512   0.12798  -0.12658
C          C       0.57903   0.00489   0.11534  -0.11641
C          C       0.28157   0.93360   0.08082  -0.04080
C          C       0.48711   0.88054   0.07067  -0.03989
C          C       0.33857   0.84525   0.05290  -0.08463
C          C       0.12650   0.89964   0.05693   0.58088
C          C       0.54402   0.78188   0.04345   0.57676
C          C       0.74487   0.59503   0.85136   0.58145
C          C       0.69177   0.46814   0.79580  -0.04595
C          C       0.79251   0.45193   0.74403  -0.08057
C          C       0.54767   0.36229   0.79433  -0.08410
C          C       0.75146   0.33204   0.69414  -0.13059
C          C       0.50628   0.24188   0.74426  -0.12671
C          C       0.60864   0.22362   0.69440   0.08321
C          C       0.57151   0.09355   0.64515   0.06356
C          C       0.68342   0.05533   0.62794  -0.12738
C          C       0.42651   0.00487   0.61495  -0.11813
C          C       0.65282   0.93352   0.58113  -0.04074
C          C       0.39408   0.88042   0.57061  -0.03964
C          C       0.50729   0.84489   0.55329  -0.08472
C          C       0.77396   0.89926   0.55740   0.57961
C          C       0.23836   0.78181   0.54354   0.57661
C          C       0.15163   0.40570   0.64707   0.58058
C          C       0.22526   0.53206   0.70313  -0.04516
C          C       0.34214   0.54862   0.75495  -0.07963
C          C       0.18592   0.63707   0.70513  -0.08543
C          C       0.41984   0.66820   0.80538  -0.13102
C          C       0.26419   0.75729   0.75547  -0.12541
C          C       0.38488   0.77618   0.80532   0.08242
C          C       0.47742   0.90644   0.85465   0.06272
C          C       0.62754   0.94488   0.87202  -0.12665
C          C       0.42097   0.99511   0.88466  -0.11642
C          C       0.71843   0.06640   0.91918  -0.04070
C          C       0.51290   0.11946   0.92933  -0.03979
C          C       0.66144   0.15475   0.94710  -0.08468
C          C       0.87351   0.10036   0.94307   0.58076
C          C       0.45598   0.21812   0.95655   0.57675
O          O       0.33867   0.39323   0.09158  -0.64836
O          O       0.13017   0.30742   0.15466  -0.50557
O          O       0.07905   0.98816   0.07159  -0.60348
O          O       0.95671   0.21710   0.97969  -0.51693
O          O       0.32085   0.18733   0.94062  -0.59796
O          O       0.44697   0.66750   0.00815  -0.54704
O          O       0.94651   0.60687   0.40837  -0.64852
O          O       0.81868   0.69079   0.34869  -0.50420
O          O       0.08954   0.01231   0.42824  -0.60385
O          O       0.73983   0.78238   0.52100  -0.51571
O          O       0.13389   0.81238   0.55953  -0.59764
O          O       0.77917   0.33256   0.49172  -0.54632
O          O       0.66133   0.60677   0.90842  -0.64840
O          O       0.86983   0.69258   0.84534  -0.50537
O          O       0.92095   0.01184   0.92841  -0.60335
O          O       0.04330   0.78290   0.02031  -0.51695
O          O       0.67915   0.81267   0.05939  -0.59784
O          O       0.55303   0.33250   0.99185  -0.54704
O          O       0.05349   0.39313   0.59163  -0.64861
O          O       0.18133   0.30921   0.65131  -0.50408
O          O       0.91047   0.98769   0.57176  -0.60369
O          O       0.26017   0.21762   0.47900  -0.51574
O          O       0.86611   0.18762   0.44047  -0.59746
O          O       0.22083   0.66744   0.50828  -0.54628

