data_crystal

_audit_creation_method 'AiiDA-DDEC plugin'

_cell_length_a        14.46964
_cell_length_b        14.46977
_cell_length_c        17.80582

_cell_angle_alpha     90.00000
_cell_angle_beta     90.00000
_cell_angle_gamma     119.83391

_symmetry_space_group_name_Hall 'P 1'
_symmetry_space_group_name_H-M  'P 1'

loop_
_symmetry_equiv_pos_as_xyz
 'x,y,z'

loop_
_atom_site_label
_atom_site_type_symbol
_atom_site_fract_x
_atom_site_fract_y
_atom_site_fract_z
_atom_site_charge
Sc         Sc      0.25493   0.74507   0.25000   1.80782
Sc         Sc      0.25519   0.51018   0.25000   1.80781
Sc         Sc      0.48982   0.74481   0.25000   1.80787
Sc         Sc      0.74507   0.25493   0.75000   1.80780
Sc         Sc      0.74481   0.48981   0.75000   1.80774
Sc         Sc      0.51019   0.25519   0.75000   1.80772
H          H       0.62244   0.94748   0.05977   0.11772
H          H       0.05232   0.67476   0.05954   0.11668
H          H       0.32548   0.37800   0.05973   0.11711
H          H       0.37757   0.05251   0.55976   0.11755
H          H       0.94768   0.32523   0.55954   0.11681
H          H       0.67452   0.62200   0.55973   0.11711
H          H       0.94749   0.62243   0.94023   0.11753
H          H       0.67477   0.05232   0.94046   0.11700
H          H       0.37800   0.32548   0.94027   0.11717
H          H       0.05252   0.37756   0.44023   0.11764
H          H       0.32524   0.94767   0.44046   0.11668
H          H       0.62201   0.67452   0.44027   0.11712
H          H       0.37757   0.05251   0.94023   0.11763
H          H       0.94768   0.32523   0.94046   0.11695
H          H       0.67452   0.62200   0.94027   0.11718
H          H       0.62244   0.94748   0.44023   0.11770
H          H       0.05233   0.67476   0.44046   0.11668
H          H       0.32548   0.37800   0.44027   0.11713
H          H       0.05251   0.37756   0.05977   0.11763
H          H       0.32524   0.94767   0.05954   0.11672
H          H       0.62200   0.67452   0.05973   0.11712
H          H       0.94749   0.62243   0.55976   0.11747
H          H       0.67477   0.05232   0.55954   0.11684
H          H       0.37800   0.32548   0.55973   0.11710
C          C       0.56964   0.97106   0.03330  -0.09838
C          C       0.02879   0.59848   0.03314  -0.09736
C          C       0.40163   0.43052   0.03323  -0.09833
C          C       0.43036   0.02894   0.53330  -0.09861
C          C       0.97121   0.40151   0.53314  -0.09728
C          C       0.59837   0.56948   0.53323  -0.09719
C          C       0.97106   0.56964   0.96669  -0.09859
C          C       0.59849   0.02879   0.96686  -0.09768
C          C       0.43052   0.40163   0.96677  -0.09735
C          C       0.02894   0.43036   0.46669  -0.09822
C          C       0.40152   0.97120   0.46686  -0.09737
C          C       0.56948   0.59837   0.46677  -0.09724
C          C       0.43036   0.02894   0.96669  -0.09855
C          C       0.97121   0.40151   0.96686  -0.09739
C          C       0.59837   0.56948   0.96677  -0.09734
C          C       0.56964   0.97106   0.46669  -0.09823
C          C       0.02879   0.59848   0.46686  -0.09727
C          C       0.40163   0.43052   0.46677  -0.09725
C          C       0.02894   0.43036   0.03330  -0.09843
C          C       0.40152   0.97120   0.03314  -0.09761
C          C       0.56948   0.59836   0.03323  -0.09838
C          C       0.97106   0.56964   0.53330  -0.09859
C          C       0.59849   0.02879   0.53314  -0.09745
C          C       0.43052   0.40163   0.53323  -0.09719
C          C       0.43970   0.87936   0.13755   0.62733
C          C       0.47087   0.94173   0.06747  -0.04390
C          C       0.12064   0.56030   0.13755   0.62750
C          C       0.05827   0.52913   0.06747  -0.04392
C          C       0.43975   0.56025   0.13757   0.62807
C          C       0.47088   0.52912   0.06746  -0.04235
C          C       0.56030   0.12064   0.63755   0.62744
C          C       0.52913   0.05827   0.56747  -0.04389
C          C       0.87937   0.43969   0.63755   0.62739
C          C       0.94174   0.47087   0.56747  -0.04392
C          C       0.56026   0.43974   0.63757   0.62892
C          C       0.52913   0.47087   0.56746  -0.04562
C          C       0.87937   0.43969   0.86245   0.62748
C          C       0.94174   0.47087   0.93252  -0.04388
C          C       0.56030   0.12064   0.86245   0.62743
C          C       0.52913   0.05827   0.93252  -0.04378
C          C       0.56026   0.43974   0.86243   0.62883
C          C       0.52913   0.47087   0.93254  -0.04566
C          C       0.12064   0.56030   0.36245   0.62757
C          C       0.05827   0.52913   0.43253  -0.04394
C          C       0.43970   0.87936   0.36245   0.62731
C          C       0.47087   0.94173   0.43253  -0.04392
C          C       0.43975   0.56025   0.36243   0.62903
C          C       0.47088   0.52912   0.43254  -0.04570
O          O       0.34811   0.85243   0.16663  -0.66521
O          O       0.14764   0.49563   0.16667  -0.66412
O          O       0.50422   0.65169   0.16670  -0.66543
O          O       0.65190   0.14756   0.66662  -0.66499
O          O       0.85237   0.50436   0.66667  -0.66429
O          O       0.49578   0.34831   0.66670  -0.66532
O          O       0.85244   0.34811   0.83337  -0.66498
O          O       0.49564   0.14764   0.83333  -0.66426
O          O       0.65169   0.50422   0.83330  -0.66525
O          O       0.14757   0.65189   0.33337  -0.66526
O          O       0.50437   0.85236   0.33333  -0.66403
O          O       0.34831   0.49578   0.33330  -0.66534
O          O       0.65190   0.14757   0.83337  -0.66502
O          O       0.85237   0.50436   0.83333  -0.66431
O          O       0.49578   0.34831   0.83330  -0.66524
O          O       0.34811   0.85243   0.33337  -0.66519
O          O       0.14764   0.49563   0.33333  -0.66421
O          O       0.50422   0.65169   0.33330  -0.66535
O          O       0.14757   0.65189   0.16663  -0.66525
O          O       0.50437   0.85236   0.16667  -0.66405
O          O       0.34831   0.49578   0.16670  -0.66544
O          O       0.85244   0.34811   0.66662  -0.66495
O          O       0.49564   0.14764   0.66667  -0.66429
O          O       0.65169   0.50422   0.66670  -0.66535
O          O       0.33330   0.66670   0.25000  -1.17924
O          O       0.66671   0.33330   0.75000  -1.17920

