data_crystal

_audit_creation_method 'AiiDA-DDEC plugin'

_cell_length_a        14.12927
_cell_length_b        14.09688
_cell_length_c        14.80016

_cell_angle_alpha     65.51966
_cell_angle_beta     61.72869
_cell_angle_gamma     60.17809

_symmetry_space_group_name_Hall 'P 1'
_symmetry_space_group_name_H-M  'P 1'

loop_
_symmetry_equiv_pos_as_xyz
 'x,y,z'

loop_
_atom_site_label
_atom_site_type_symbol
_atom_site_fract_x
_atom_site_fract_y
_atom_site_fract_z
_atom_site_charge
Ca         Ca      0.70558   0.25031   0.74956   1.48363
Ca         Ca      0.29442   0.74969   0.25044   1.48364
Cd         Cd      0.95105   0.02131   0.63459   1.04132
Cd         Cd      0.60833   0.47878   0.86505   1.03974
Cd         Cd      0.04895   0.97869   0.36541   1.04130
Cd         Cd      0.39167   0.52122   0.13495   1.03977
H          H       0.70388   0.42481   0.49636   0.12034
H          H       0.56706   0.55294   0.39493   0.12128
H          H       0.68452   0.29282   0.24407   0.12297
H          H       0.82357   0.16585   0.34076   0.11501
H          H       0.82892   0.16061   0.95677   0.12235
H          H       0.13994   0.87314   0.87715   0.12548
H          H       0.62388   0.07513   0.00400   0.12019
H          H       0.51427   0.94628   0.10670   0.12481
H          H       0.22214   0.20789   0.25440   0.12392
H          H       0.33045   0.33534   0.15709   0.11374
H          H       0.94699   0.33758   0.54580   0.12351
H          H       0.89151   0.62881   0.62124   0.12522
H          H       0.29613   0.57519   0.50364   0.12036
H          H       0.43294   0.44706   0.60507   0.12136
H          H       0.31548   0.70717   0.75593   0.12296
H          H       0.17643   0.83415   0.65924   0.11498
H          H       0.17108   0.83938   0.04323   0.12237
H          H       0.86007   0.12686   0.12285   0.12541
H          H       0.37612   0.92486   0.99600   0.12013
H          H       0.48573   0.05372   0.89330   0.12473
H          H       0.77786   0.79211   0.74560   0.12398
H          H       0.66956   0.66466   0.84291   0.11382
H          H       0.05301   0.66241   0.45420   0.12350
H          H       0.10849   0.37119   0.37876   0.12525
C          C       0.77182   0.28666   0.42591  -0.04308
C          C       0.70015   0.39664   0.44032  -0.09590
C          C       0.62380   0.46805   0.38413  -0.09456
C          C       0.61682   0.42963   0.31465  -0.02266
C          C       0.69072   0.32107   0.29840  -0.08919
C          C       0.76825   0.25024   0.35291  -0.09736
C          C       0.84389   0.20624   0.49335   0.60704
C          C       0.52767   0.50050   0.26077   0.60022
C          C       0.96359   0.03813   0.80913   0.59422
C          C       0.98311   0.01906   0.90702  -0.02695
C          C       0.90353   0.09084   0.97627  -0.09708
C          C       0.07955   0.92817   0.93135  -0.09826
C          C       0.48414   0.21376   0.07344  -0.04745
C          C       0.53644   0.10339   0.05979  -0.09282
C          C       0.47565   0.03160   0.11661  -0.10040
C          C       0.36144   0.07014   0.18571  -0.02220
C          C       0.31058   0.17941   0.20063  -0.09087
C          C       0.37158   0.25053   0.14574  -0.09552
C          C       0.54366   0.29395   0.00614   0.60990
C          C       0.28983  -0.00138   0.24043   0.60232
C          C       0.81218   0.46200   0.69137   0.58993
C          C       0.91004   0.48103   0.59344  -0.02556
C          C       0.97104   0.40820   0.52504  -0.09783
C          C       0.93958   0.57289   0.56783  -0.09822
C          C       0.22818   0.71334   0.57409  -0.04622
C          C       0.29985   0.60336   0.55968  -0.09487
C          C       0.37620   0.53195   0.61587  -0.09452
C          C       0.38318   0.57037   0.68535  -0.02255
C          C       0.30928   0.67893   0.70159  -0.08923
C          C       0.23175   0.74976   0.64709  -0.09643
C          C       0.15611   0.79375   0.50665   0.60801
C          C       0.47233   0.49950   0.73923   0.60017
C          C       0.03641   0.96187   0.19087   0.59431
C          C       0.01689   0.98094   0.09298  -0.02689
C          C       0.09647   0.90915   0.02373  -0.09702
C          C       0.92045   0.07182   0.06865  -0.09830
C          C       0.51586   0.78624   0.92656  -0.04745
C          C       0.46356   0.89661   0.94021  -0.09289
C          C       0.52435   0.96840   0.88339  -0.10035
C          C       0.63856   0.92985   0.81429  -0.02230
C          C       0.68943   0.82059   0.79937  -0.09082
C          C       0.62842   0.74947   0.85426  -0.09552
C          C       0.45634   0.70605   0.99386   0.60998
C          C       0.71017   0.00138   0.75957   0.60227
C          C       0.18782   0.53800   0.30863   0.58993
C          C       0.08996   0.51897   0.40656  -0.02566
C          C       0.02896   0.59180   0.47496  -0.09782
C          C       0.06042   0.42710   0.43217  -0.09810
O          O       0.82750   0.22879   0.57584  -0.63917
O          O       0.92066   0.11042   0.47237  -0.58600
O          O       0.52632   0.45243   0.20450  -0.57490
O          O       0.46056   0.59869   0.27500  -0.64489
O          O       0.04170   0.97471   0.74443  -0.54962
O          O       0.87080   0.11387   0.79248  -0.65094
O          O       0.63124   0.27143   0.92346  -0.63991
O          O       0.50548   0.38928   0.02757  -0.58564
O          O       0.18460   0.04707   0.29581  -0.57722
O          O       0.33502   0.89972   0.22764  -0.64497
O          O       0.76201   0.52593   0.75580  -0.54816
O          O       0.77901   0.38547   0.70814  -0.64984
O          O       0.17250   0.77121   0.42416  -0.63911
O          O       0.07934   0.88958   0.52763  -0.58604
O          O       0.47368   0.54756   0.79550  -0.57496
O          O       0.53944   0.40131   0.72500  -0.64477
O          O       0.95830   0.02529   0.25557  -0.54976
O          O       0.12920   0.88613   0.20752  -0.65089
O          O       0.36877   0.72857   0.07654  -0.64002
O          O       0.49453   0.61072   0.97243  -0.58561
O          O       0.81540   0.95293   0.70419  -0.57714
O          O       0.66498   0.10028   0.77236  -0.64500
O          O       0.23799   0.47406   0.24420  -0.54805
O          O       0.22100   0.61453   0.29186  -0.64992

