data_crystal

_audit_creation_method 'AiiDA-DDEC plugin'

_cell_length_a        12.64813
_cell_length_b        12.64797
_cell_length_c        13.46630

_cell_angle_alpha     63.34910
_cell_angle_beta     63.33502
_cell_angle_gamma     88.43264

_symmetry_space_group_name_Hall 'P 1'
_symmetry_space_group_name_H-M  'P 1'

loop_
_symmetry_equiv_pos_as_xyz
 'x,y,z'

loop_
_atom_site_label
_atom_site_type_symbol
_atom_site_fract_x
_atom_site_fract_y
_atom_site_fract_z
_atom_site_charge
Mn         Mn      0.50000  -0.00036  -0.00053   1.10096
Mn         Mn     -0.00036   0.50000   0.49947   1.10129
Mn         Mn      0.30557   0.69415   0.25039   1.12431
Mn         Mn      0.69416   0.30558   0.75038   1.12440
H          H       0.74997   0.85359   0.76111   0.10050
H          H       0.86668   0.73401   0.65846   0.08452
H          H       0.64518   0.40322   0.00023   0.11263
H          H       0.53424   0.52221   0.10657   0.12205
H          H       0.24734   0.79016   0.01139   0.14929
H          H       0.08643   0.84755   0.95132   0.12903
H          H       0.04698   0.10420   0.09124   0.12838
H          H       0.21297   0.03696   0.14077   0.13212
H          H       0.14620   0.25030   0.73859   0.10139
H          H       0.26554   0.13338   0.84113   0.08662
H          H       0.59668   0.35455   0.49982   0.11292
H          H       0.47807   0.46594   0.39336   0.12224
H          H       0.20964   0.75277   0.48843   0.14985
H          H       0.15213   0.91339   0.54906   0.12884
H          H       0.89559   0.95331   0.40892   0.12815
H          H       0.96258   0.78705   0.35969   0.13181
H          H       0.25030   0.14622   0.23857   0.10129
H          H       0.13336   0.26555   0.34115   0.08661
H          H       0.35455   0.59666  -0.00017   0.11289
H          H       0.46595   0.47806   0.89334   0.12244
H          H       0.75277   0.20965   0.98843   0.15018
H          H       0.91338   0.15214   0.04906   0.12874
H          H       0.95331   0.89558   0.90892   0.12841
H          H       0.78706   0.96257   0.85969   0.13167
H          H       0.85361   0.74998   0.26109   0.10043
H          H       0.73402   0.86666   0.15848   0.08456
H          H       0.40319   0.64517   0.50024   0.11276
H          H       0.52220   0.53426   0.60655   0.12222
H          H       0.79017   0.24734   0.51140   0.14929
H          H       0.84756   0.08642   0.45132   0.12902
H          H       0.10419   0.04698   0.59123   0.12848
H          H       0.03695   0.21298   0.64077   0.13210
C          C       0.55996   0.76317   0.00267   0.58732
C          C       0.63551   0.69472   0.94060  -0.04174
C          C       0.73002   0.75501   0.81391  -0.11483
C          C       0.79423   0.68878   0.75643  -0.10645
C          C       0.76376   0.56154   0.82291  -0.03353
C          C       0.67017   0.50162   0.94992  -0.09773
C          C       0.60784   0.56748   0.00873  -0.09330
C          C       0.82538   0.49084   0.75715   0.59381
C          C       0.19867   0.85865   0.02497  -0.01446
C          C       0.10814   0.89206   0.99467  -0.15385
C          C       0.04724   0.98102   0.01737   0.06713
C          C       0.08566   0.03292   0.07279  -0.16174
C          C       0.17622  -0.00229   0.10271  -0.03532
C          C       0.23713   0.44079   0.49682   0.58766
C          C       0.30532   0.36447   0.55885  -0.03961
C          C       0.24475   0.26997   0.68551  -0.11446
C          C       0.31077   0.20547   0.74304  -0.10743
C          C       0.43801   0.23565   0.67676  -0.03423
C          C       0.49828   0.32936   0.54990  -0.09760
C          C       0.43258   0.39203   0.49102  -0.09301
C          C       0.50746   0.17470   0.74419   0.59689
C          C       0.14088   0.80130   0.47526  -0.01056
C          C       0.10753   0.89173   0.50574  -0.15534
C          C       0.01869   0.95284   0.48294   0.06919
C          C       0.96667   0.91443   0.42765  -0.16120
C          C       0.00165   0.82374   0.39794  -0.03415
C          C       0.44079   0.23713   0.99681   0.58800
C          C       0.36448   0.30532   0.05884  -0.03985
C          C       0.26997   0.24476   0.18550  -0.11414
C          C       0.20546   0.31078   0.24305  -0.10764
C          C       0.23564   0.43800   0.17678  -0.03403
C          C       0.32936   0.49827   0.04990  -0.09749
C          C       0.39204   0.43257   0.99101  -0.09305
C          C       0.17469   0.50747   0.24420   0.59673
C          C       0.80130   0.14089   0.97526  -0.01105
C          C       0.89172   0.10754   0.00574  -0.15495
C          C       0.95284   0.01869   0.98294   0.06916
C          C       0.91443   0.96666   0.92765  -0.16157
C          C       0.82375   0.00164   0.89794  -0.03414
C          C       0.76317   0.55997   0.50267   0.58705
C          C       0.69472   0.63552   0.44058  -0.04174
C          C       0.75502   0.73002   0.31390  -0.11456
C          C       0.68879   0.79422   0.25644  -0.10665
C          C       0.56153   0.76375   0.32293  -0.03357
C          C       0.50161   0.67017   0.44992  -0.09766
C          C       0.56747   0.60785   0.50872  -0.09377
C          C       0.49084   0.82538   0.25716   0.59368
C          C       0.85866   0.19867   0.52497  -0.01433
C          C       0.89207   0.10814   0.49467  -0.15404
C          C       0.98102   0.04724   0.51737   0.06712
C          C       0.03292   0.08566   0.57279  -0.16205
C          C      -0.00229   0.17623   0.60271  -0.03492
N          N       0.23102   0.91032   0.08000   0.33684
N          N       0.08916   0.76914   0.42025   0.33694
N          N       0.76914   0.08916   0.92025   0.33722
N          N       0.91032   0.23103   0.58001   0.33667
O          O       0.47781   0.70026   0.11842  -0.56631
O          O       0.58274   0.87869   0.93528  -0.57239
O          O       0.77827   0.37716   0.81552  -0.60585
O          O       0.91900   0.54665   0.64747  -0.56337
O          O       0.31705   0.87589   0.11133  -0.50498
O          O       0.30071   0.52295   0.38099  -0.56542
O          O       0.12187   0.41894   0.56422  -0.56796
O          O       0.62109   0.22109   0.68659  -0.60418
O          O       0.44961   0.08334   0.85536  -0.56291
O          O       0.12288   0.68290   0.38909  -0.50767
O          O       0.52297   0.30070   0.88097  -0.56570
O          O       0.41895   0.12189   0.06420  -0.56791
O          O       0.22108   0.62108   0.18659  -0.60402
O          O       0.08332   0.44961   0.35539  -0.56284
O          O       0.68291   0.12288   0.88910  -0.50788
O          O       0.70025   0.47783   0.61840  -0.56623
O          O       0.87871   0.58275   0.43527  -0.57231
O          O       0.37715   0.77826   0.31552  -0.60586
O          O       0.54665   0.91898   0.14750  -0.56336
O          O       0.87589   0.31706   0.61134  -0.50495

