data_crystal

_audit_creation_method 'AiiDA-DDEC plugin'

_cell_length_a         9.89239
_cell_length_b        10.00338
_cell_length_c        19.38766

_cell_angle_alpha     108.49933
_cell_angle_beta     106.71269
_cell_angle_gamma     76.14382

_symmetry_space_group_name_Hall 'P 1'
_symmetry_space_group_name_H-M  'P 1'

loop_
_symmetry_equiv_pos_as_xyz
 'x,y,z'

loop_
_atom_site_label
_atom_site_type_symbol
_atom_site_fract_x
_atom_site_fract_y
_atom_site_fract_z
_atom_site_charge
In         In      0.86265   0.03787   0.72196   1.39634
In         In      0.13735   0.96214   0.27804   1.39641
H          H       0.67717   0.13656   0.92352   0.12905
H          H       0.73815   0.16731   0.03281   0.12651
H          H       0.80776   0.23162   0.16845   0.13035
H          H       0.45796   0.22584   0.28069   0.11376
H          H       0.52573   0.28929   0.41591   0.13017
H          H       0.24004   0.15036   0.93625   0.12496
H          H       0.29498   0.21660   0.04257   0.12588
H          H       0.36491   0.27825   0.17764   0.12731
H          H       0.82613   0.38475   0.27523   0.12248
H          H       0.88627   0.45913   0.41168   0.11278
H          H       0.35438   0.01918   0.72553   0.13822
H          H       0.78386   0.63732   0.51018   0.13406
H          H       0.86102   0.55068   0.72345   0.13211
H          H       0.72489   0.23144   0.52157   0.14102
H          H       0.75997   0.84964   0.06376   0.12491
H          H       0.70503   0.78341   0.95743   0.12602
H          H       0.63509   0.72176   0.82237   0.12723
H          H       0.17387   0.61525   0.72477   0.12245
H          H       0.11373   0.54088   0.58832   0.11266
H          H       0.32283   0.86345   0.07648   0.12902
H          H       0.26186   0.83270   0.96720   0.12656
H          H       0.19225   0.76838   0.83155   0.13024
H          H       0.54204   0.77417   0.71932   0.11390
H          H       0.47427   0.71071   0.58409   0.13009
H          H       0.64563   0.98083   0.27447   0.13836
H          H       0.21615   0.36268   0.48982   0.13409
H          H       0.13899   0.44933   0.27656   0.13199
H          H       0.27511   0.76856   0.47844   0.14118
C          C       0.62877   0.06138   0.77570   0.53639
C          C       0.52455   0.08043   0.82169  -0.02027
C          C       0.56592   0.12317   0.89925  -0.11133
C          C       0.65539   0.19438   0.06410  -0.11268
C          C       0.69483   0.23233   0.14125  -0.10340
C          C       0.55091   0.27882   0.30867  -0.09906
C          C       0.58974   0.31374   0.38562  -0.10893
C          C       0.13318   0.06068   0.79171   0.53434
C          C       0.28318   0.08346   0.82855  -0.01619
C          C       0.32347   0.12889   0.90614  -0.11310
C          C       0.40791   0.21918   0.06962  -0.11634
C          C       0.44775   0.25409   0.14667  -0.09774
C          C       0.75808   0.36677   0.30559  -0.09245
C          C       0.79166   0.40938   0.38258  -0.11337
C          C       0.38406   0.05730   0.78606  -0.05404
C          C       0.46667   0.14670   0.94370   0.05631
C          C       0.50988   0.18793   0.02538   0.09770
C          C       0.59279   0.26365   0.18535   0.09137
C          C       0.63386   0.30335   0.26641   0.07610
C          C       0.70938   0.38347   0.42444   0.11423
C          C       0.74838   0.42909   0.50600   0.05625
C          C       0.78758   0.56491   0.54250  -0.12959
C          C       0.82498   0.61084   0.62047  -0.01891
C          C       0.82978   0.51834   0.66268  -0.08929
C          C       0.79453   0.38132   0.62694  -0.01181
C          C       0.75068   0.33829   0.54907  -0.11350
C          C       0.85288   0.76010   0.65773   0.53773
C          C       0.81257   0.28022   0.67298   0.53495
C          C       0.86683   0.93933   0.20829   0.53407
C          C       0.71682   0.91655   0.17145  -0.01612
C          C       0.67653   0.87112   0.09386  -0.11314
C          C       0.59210   0.78082   0.93038  -0.11652
C          C       0.55225   0.74592   0.85333  -0.09761
C          C       0.24192   0.63323   0.69441  -0.09237
C          C       0.20835   0.59063   0.61742  -0.11343
C          C       0.37124   0.93862   0.22431   0.53651
C          C       0.47545   0.91957   0.17831  -0.02029
C          C       0.43409   0.87683   0.10075  -0.11152
C          C       0.34461   0.80562   0.93590  -0.11254
C          C       0.30517   0.76767   0.85876  -0.10366
C          C       0.44910   0.72119   0.69134  -0.09910
C          C       0.41026   0.68626   0.61438  -0.10880
C          C       0.61595   0.94270   0.21395  -0.05397
C          C       0.53334   0.85330   0.05631   0.05626
C          C       0.49012   0.81207   0.97462   0.09780
C          C       0.40721   0.73636   0.81466   0.09145
C          C       0.36614   0.69665   0.73359   0.07614
C          C       0.29062   0.61653   0.57556   0.11412
C          C       0.25162   0.57092   0.49401   0.05618
C          C       0.21242   0.43510   0.45750  -0.12962
C          C       0.17502   0.38917   0.37953  -0.01886
C          C       0.17023   0.48166   0.33732  -0.08942
C          C       0.20548   0.61868   0.37307  -0.01193
C          C       0.24932   0.66172   0.45093  -0.11327
C          C       0.14712   0.23990   0.34227   0.53777
C          C       0.18744   0.71978   0.32703   0.53504
O          O       0.74833   0.10701   0.81142  -0.54133
O          O       0.59953   0.00372   0.70662  -0.52716
O          O       0.04503   0.08233   0.83202  -0.52731
O          O       0.09675   0.02102   0.72001  -0.54124
O          O       0.89212   0.80113   0.72927  -0.57404
O          O       0.83135   0.84504   0.61735  -0.52255
O          O       0.78407   0.15292   0.63592  -0.53527
O          O       0.85704   0.31853   0.74299  -0.52941
O          O       0.95497   0.91768   0.16798  -0.52735
O          O       0.90325   0.97898   0.27999  -0.54091
O          O       0.25167   0.89300   0.18859  -0.54177
O          O       0.40047   0.99629   0.29338  -0.52679
O          O       0.10789   0.19888   0.27074  -0.57435
O          O       0.16865   0.15497   0.38265  -0.52236
O          O       0.21593   0.84708   0.36408  -0.53508
O          O       0.14296   0.68148   0.25702  -0.52970

