data_crystal

_audit_creation_method 'AiiDA-DDEC plugin'

_cell_length_a         9.30935
_cell_length_b        12.62997
_cell_length_c        18.66569

_cell_angle_alpha     106.78779
_cell_angle_beta     97.08703
_cell_angle_gamma     100.86431

_symmetry_space_group_name_Hall 'P 1'
_symmetry_space_group_name_H-M  'P 1'

loop_
_symmetry_equiv_pos_as_xyz
 'x,y,z'

loop_
_atom_site_label
_atom_site_type_symbol
_atom_site_fract_x
_atom_site_fract_y
_atom_site_fract_z
_atom_site_charge
Ho         Ho      0.28330   0.48654   0.49623   2.13680
Ho         Ho      0.71689   0.51361   0.50387   2.13702
H          H       0.58510   0.05040   0.09491   0.09410
H          H       0.42233   0.07570   0.05308   0.08080
H          H       0.62330   0.67331   0.09357   0.09234
H          H       0.46737   0.55746   0.06031   0.08018
H          H       0.97789   0.75337   0.95319   0.08979
H          H       0.98765   0.61688   0.95460   0.07412
H          H       0.66604   0.83371   0.17433   0.13597
H          H       0.60257   0.95908   0.20306   0.15658
H          H       0.70371   0.93753   0.12816   0.12671
H          H       0.28765   0.50254   0.95440   0.12743
H          H       0.10567   0.51592   0.96257   0.13532
H          H       0.22601   0.50797   0.04112   0.12768
H          H       0.13695   0.89480   0.92286   0.14003
H          H       0.23150   0.01935  -0.00119   0.12565
H          H       0.06681   0.93366   0.00802   0.12949
H          H       0.67731   0.16869   0.20626   0.09332
H          H       0.65380   0.29410   0.33213   0.13609
H          H       0.17531   0.16416   0.26834   0.13106
H          H       0.21252   0.03878   0.14419   0.09329
H          H       0.73566   0.65417   0.19714   0.08953
H          H       0.73768   0.63624   0.32743   0.14010
H          H       0.26378   0.61377   0.29423   0.13495
H          H       0.27556   0.64110   0.16727   0.09489
H          H       0.27967   0.64700   0.87745   0.09489
H          H       0.28243   0.57497   0.73931   0.12286
H          H       0.82109   0.59190   0.69279   0.13450
H          H       0.83031   0.66256   0.83275   0.09119
H          H       0.41529   0.94957   0.90500   0.09388
H          H       0.57818   0.92410   0.94664   0.08104
H          H       0.37786   0.32702   0.90634   0.09326
H          H       0.53395   0.44263   0.93972   0.07960
H          H       0.02250   0.24660   0.04755   0.09068
H          H       0.01263   0.38306   0.04591   0.07445
H          H       0.33487   0.16655   0.82557   0.13548
H          H       0.39763   0.04084   0.79681   0.15570
H          H       0.29724   0.06313   0.87209   0.12557
H          H       0.71289   0.49744   0.04553   0.12742
H          H       0.89497   0.48405   0.03762   0.13493
H          H       0.77519   0.49190   0.95895   0.12792
H          H       0.86324   0.10494   0.07729   0.13938
H          H       0.76856   0.98044   0.00133   0.12545
H          H       0.93340   0.06593   0.99216   0.12949
H          H       0.32278   0.83180   0.79259   0.09195
H          H       0.34701   0.70655   0.66686   0.13591
H          H       0.82558   0.83474   0.73218   0.13049
H          H       0.78732   0.95974   0.85630   0.09223
H          H       0.26585   0.34761   0.80304   0.09102
H          H       0.26417   0.36527   0.67260   0.13988
H          H       0.73736   0.38501   0.70534   0.13303
H          H       0.72540   0.35853   0.83257   0.09456
H          H       0.72129   0.35466   0.12317   0.09458
H          H       0.71875   0.42620   0.26148   0.12287
H          H       0.17864   0.40594   0.30764   0.13459
H          H       0.16898   0.33517   0.16755   0.09037
C          C       0.39585   0.90908   0.06797  -0.05272
C          C       0.47427   0.83952   0.09650   0.09152
C          C       0.41681   0.72099   0.07165  -0.04807
C          C       0.27773   0.67136   0.02152   0.07101
C          C       0.19760   0.74178   0.99587  -0.04612
C          C       0.25786   0.86044   0.01746   0.07111
C          C       0.46485   0.03578   0.09362  -0.10709
C          C       0.50651   0.64611   0.09797  -0.11462
C          C       0.04812   0.69186   0.94286  -0.10351
C          C       0.61895   0.89418   0.15300  -0.42546
C          C       0.22068   0.54336   0.99382  -0.42862
C          C       0.17000   0.93106   0.98519  -0.42887
C          C       0.57027   0.16928   0.22348  -0.06331
C          C       0.55512   0.23732   0.29233  -0.12877
C          C       0.41199   0.23836   0.31146  -0.05220
C          C       0.28655   0.16490   0.25589  -0.14264
C          C       0.30456   0.09691   0.18751  -0.06639
C          C       0.39436   0.31710   0.38244   0.59985
C          C       0.63609   0.64700   0.22189  -0.07725
C          C       0.63524   0.63698   0.29272  -0.12578
C          C       0.50101   0.62459   0.32190  -0.05587
C          C       0.36881   0.62411   0.27425  -0.13586
C          C       0.37241   0.63677   0.20412  -0.06993
C          C       0.50033   0.60641   0.39597   0.62303
C          C       0.18232   0.63317   0.83449  -0.07089
C          C       0.18165   0.59436   0.75804  -0.15084
C          C       0.05220   0.57988   0.70307  -0.07368
C          C       0.92332   0.60373   0.73229  -0.11682
C          C       0.92631   0.64271   0.80890  -0.08605
C          C       0.05272   0.54565   0.62141   0.63243
C          C       0.60476   0.09083   0.93191  -0.05193
C          C       0.52659   0.16051   0.90335   0.09144
C          C       0.58418   0.27902   0.92826  -0.04854
C          C       0.72301   0.32860   0.97863   0.06995
C          C       0.80280   0.25817   0.00449  -0.04525
C          C       0.74253   0.13946   0.98268   0.07033
C          C       0.53547   0.96403   0.90613  -0.10638
C          C       0.49468   0.35407   0.90196  -0.11377
C          C       0.95216   0.30807   0.05766  -0.10462
C          C       0.38179   0.10600   0.84690  -0.42221
C          C       0.78007   0.45657   0.00627  -0.42829
C          C       0.83019   0.06872   0.01496  -0.42790
C          C       0.43002   0.83080   0.77568  -0.05896
C          C       0.44579   0.76273   0.70688  -0.12989
C          C       0.58924   0.76124   0.68822  -0.05094
C          C       0.71418   0.83435   0.74427  -0.14341
C          C       0.69560   0.90215   0.81256  -0.06622
C          C       0.60878   0.68326   0.61740   0.59724
C          C       0.36528   0.35407   0.77814  -0.07881
C          C       0.36627   0.36385   0.70723  -0.12573
C          C       0.50031   0.37541   0.67791  -0.05563
C          C       0.63238   0.37537   0.72547  -0.13332
C          C       0.62868   0.36311   0.79570  -0.07198
C          C       0.50061   0.39343   0.60380   0.62268
C          C       0.81831   0.36763   0.16603  -0.06865
C          C       0.81902   0.40619   0.24248  -0.15131
C          C       0.94826   0.41983   0.29721  -0.07360
C          C       0.07684   0.39515   0.26808  -0.11520
C          C       0.07358   0.35623   0.19150  -0.08584
C          C       0.94738   0.45371   0.37874   0.63040
N          N       0.44643   0.09670   0.17027   0.04030
N          N       0.50612   0.65076   0.17721   0.05144
N          N       0.05714   0.66179   0.86167   0.03431
N          N       0.55360   0.90287   0.82939   0.03921
N          N       0.49506   0.34975   0.82275   0.05274
N          N       0.94302   0.33813   0.13881   0.03290
O          O       0.26306   0.32031   0.39610  -0.65312
O          O       0.51137   0.38609   0.42881  -0.76551
O          O       0.37327   0.57727   0.41425  -0.69968
O          O       0.62793   0.61853   0.43668  -0.69662
O          O       0.17867   0.54000   0.60015  -0.71247
O          O       0.93045   0.52343   0.57417  -0.72714
O          O       0.74083   0.68221   0.60410  -0.64991
O          O       0.49311   0.61261   0.57071  -0.77014
O          O       0.62775   0.42257   0.58565  -0.69860
O          O       0.37300   0.38147   0.56312  -0.69569
O          O       0.82144   0.45912   0.39992  -0.70704
O          O       0.06988   0.47645   0.42594  -0.72862

