data_crystal

_audit_creation_method 'AiiDA-DDEC plugin'

_cell_length_a         8.56119
_cell_length_b        12.52120
_cell_length_c        12.52122

_cell_angle_alpha     64.14435
_cell_angle_beta     80.77041
_cell_angle_gamma     80.77039

_symmetry_space_group_name_Hall 'P 1'
_symmetry_space_group_name_H-M  'P 1'

loop_
_symmetry_equiv_pos_as_xyz
 'x,y,z'

loop_
_atom_site_label
_atom_site_type_symbol
_atom_site_fract_x
_atom_site_fract_y
_atom_site_fract_z
_atom_site_charge
Cu         Cu      0.07425   0.40425   0.99239   0.84554
Cu         Cu      0.42575   0.00762   0.59576   0.84530
Cu         Cu      0.92575   0.59575   0.00761   0.84550
Cu         Cu      0.57425   0.99238   0.40425   0.84530
H          H       0.25728   0.73737   0.65724   0.13218
H          H       0.20413   0.63621   0.60838   0.11713
H          H       0.93449   0.75909   0.56816   0.08796
H          H       0.99059   0.85194   0.62515   0.09836
H          H       0.02349   0.94512   0.40477   0.13441
H          H       0.15307   0.82157   0.40043   0.11105
H          H       0.15843   0.14764   0.17049   0.10346
H          H       0.34804   0.97318   0.18634   0.12676
H          H       0.50410   0.16829   0.81106   0.12726
H          H       0.31038   0.33704   0.81499   0.10147
H          H       0.24272   0.34276   0.26263   0.13223
H          H       0.29586   0.39162   0.36379   0.11722
H          H       0.56550   0.43184   0.24091   0.08792
H          H       0.50941   0.37485   0.14806   0.09837
H          H       0.47650   0.59523   0.05488   0.13430
H          H       0.34692   0.59957   0.17843   0.11102
H          H       0.34156   0.82951   0.85236   0.10342
H          H       0.15196   0.81366   0.02682   0.12677
H          H       0.99590   0.18895   0.83172   0.12735
H          H       0.18962   0.18501   0.66296   0.10152
H          H       0.74272   0.26263   0.34276   0.13223
H          H       0.79586   0.36379   0.39162   0.11723
H          H       0.06550   0.24091   0.43184   0.08795
H          H       0.00941   0.14806   0.37485   0.09835
H          H       0.97650   0.05488   0.59523   0.13436
H          H       0.84692   0.17843   0.59957   0.11108
H          H       0.84156   0.85236   0.82951   0.10339
H          H       0.65196   0.02682   0.81366   0.12674
H          H       0.49590   0.83171   0.18894   0.12731
H          H       0.68962   0.66296   0.18501   0.10150
H          H       0.75728   0.65724   0.73738   0.13222
H          H       0.70413   0.60838   0.63621   0.11714
H          H       0.43449   0.56816   0.75909   0.08796
H          H       0.49059   0.62515   0.85194   0.09849
H          H       0.52350   0.40477   0.94512   0.13443
H          H       0.65307   0.40043   0.82157   0.11103
H          H       0.65843   0.17049   0.14764   0.10344
H          H       0.84804   0.18634   0.97318   0.12675
H          H       0.00410   0.81105   0.16829   0.12733
H          H       0.81038   0.81499   0.33704   0.10153
C          C       0.09372   0.62204   0.77901   0.63670
C          C       0.15640   0.69616   0.65130  -0.29507
C          C       0.03655   0.79598   0.57769  -0.10520
C          C       0.11276   0.87326   0.45325  -0.29883
C          C       0.25339   0.92996   0.45940   0.63228
C          C       0.23693   0.14763   0.09295   0.10627
C          C       0.34320   0.04905   0.09990  -0.17222
C          C       0.44333   0.05188  -0.00164   0.09351
C          C       0.43131   0.15841   0.89375  -0.17697
C          C       0.32219   0.25325   0.89437   0.08822
C          C       0.40627   0.22100   0.37796   0.63668
C          C       0.34360   0.34870   0.30384  -0.29505
C          C       0.46345   0.42231   0.20402  -0.10529
C          C       0.38723   0.54675   0.12674  -0.29879
C          C       0.24661   0.54060   0.07004   0.63225
C          C       0.26306   0.90705   0.85237   0.10632
C          C       0.15680   0.90010   0.95095  -0.17233
C          C       0.05667   0.00164   0.94812   0.09359
C          C       0.06868   0.10625   0.84159  -0.17692
C          C       0.17780   0.10563   0.74675   0.08822
C          C       0.90628   0.37796   0.22100   0.63675
C          C       0.84360   0.30384   0.34870  -0.29509
C          C       0.96345   0.20402   0.42231  -0.10534
C          C       0.88724   0.12674   0.54675  -0.29873
C          C       0.74661   0.07004   0.54060   0.63231
C          C       0.76306   0.85236   0.90706   0.10625
C          C       0.65680   0.95095   0.90010  -0.17221
C          C       0.55667   0.94812   0.00164   0.09342
C          C       0.56868   0.84159   0.10625  -0.17687
C          C       0.67780   0.74675   0.10563   0.08819
C          C       0.59372   0.77900   0.62204   0.63669
C          C       0.65640   0.65130   0.69616  -0.29512
C          C       0.53655   0.57769   0.79598  -0.10532
C          C       0.61276   0.45325   0.87326  -0.29894
C          C       0.75339   0.45940   0.92997   0.63226
C          C       0.73693   0.09295   0.14763   0.10630
C          C       0.84320   0.09990   0.04905  -0.17234
C          C       0.94333  -0.00164   0.05188   0.09357
C          C       0.93131   0.89375   0.15841  -0.17696
C          C       0.82219   0.89437   0.25325   0.08815
N          N       0.22467   0.24854   0.99180  -0.24981
N          N       0.27532   0.00820   0.75146  -0.25004
N          N       0.77532   0.75146   0.00820  -0.24982
N          N       0.72467   0.99180   0.24854  -0.24981
O          O       0.13375   0.50952   0.82087  -0.56253
O          O       0.00807   0.67761   0.83599  -0.55209
O          O       0.24278   0.96067   0.54498  -0.56034
O          O       0.37230   0.94110   0.38064  -0.56934
O          O       0.36624   0.17913   0.49048  -0.56240
O          O       0.49192   0.16401   0.32239  -0.55219
O          O       0.25722   0.45502   0.03933  -0.56026
O          O       0.12769   0.61936   0.05890  -0.56939
O          O       0.86624   0.49047   0.17913  -0.56251
O          O       0.99192   0.32239   0.16401  -0.55216
O          O       0.75722   0.03933   0.45502  -0.56042
O          O       0.62770   0.05890   0.61936  -0.56931
O          O       0.63375   0.82087   0.50953  -0.56247
O          O       0.50807   0.83599   0.67761  -0.55207
O          O       0.74278   0.54498   0.96067  -0.56019
O          O       0.87230   0.38064   0.94110  -0.56944

