data_crystal

_audit_creation_method 'AiiDA-DDEC plugin'

_cell_length_a        13.12574
_cell_length_b        14.11023
_cell_length_c        14.11023

_cell_angle_alpha     77.35748
_cell_angle_beta     62.12898
_cell_angle_gamma     62.12898

_symmetry_space_group_name_Hall 'P 1'
_symmetry_space_group_name_H-M  'P 1'

loop_
_symmetry_equiv_pos_as_xyz
 'x,y,z'

loop_
_atom_site_label
_atom_site_type_symbol
_atom_site_fract_x
_atom_site_fract_y
_atom_site_fract_z
_atom_site_charge
Cu         Cu      0.88853   0.74950   0.72324   0.24202
Cu         Cu      0.36195   0.75013   0.77630   0.24377
Cu         Cu      0.63805   0.72370   0.74987   0.24385
Cu         Cu      0.11148   0.77676   0.75050   0.24196
Cu         Cu      0.11148   0.25050   0.27676   0.24194
Cu         Cu      0.63805   0.24987   0.22370   0.24382
Cu         Cu      0.36195   0.27630   0.25013   0.24379
Cu         Cu      0.88853   0.22324   0.24950   0.24197
H          H       0.14923   0.66823   0.48712   0.11873
H          H       0.12706   0.62493   0.61948   0.09719
H          H       0.30574   0.83061   0.01168   0.11885
H          H       0.37310   0.87370   0.87926   0.09624
H          H       0.81791   0.48783   0.83116   0.11909
H          H       0.75215   0.62019   0.87435   0.09743
H          H       0.13582   0.01233   0.66877   0.11975
H          H       0.24658   0.87992   0.62573   0.09727
H          H       0.85077   0.01288   0.83177   0.11871
H          H       0.87294   0.88052   0.87508   0.09709
H          H       0.69426   0.48832   0.66940   0.11887
H          H       0.62690   0.62074   0.62630   0.09624
H          H       0.18209   0.66885   0.01217   0.11914
H          H       0.24785   0.62565   0.87981   0.09737
H          H       0.86418   0.83123   0.48767   0.11963
H          H       0.75342   0.87428   0.62008   0.09725
H          H       0.85077   0.33177   0.51288   0.11875
H          H       0.87294   0.37508   0.38052   0.09712
H          H       0.69426   0.16939   0.98832   0.11884
H          H       0.62690   0.12630   0.12074   0.09624
H          H       0.18209   0.51217   0.16884   0.11912
H          H       0.24785   0.37981   0.12565   0.09737
H          H       0.86418   0.98767   0.33123   0.11965
H          H       0.75342   0.12008   0.37428   0.09725
H          H       0.14923   0.98712   0.16823   0.11873
H          H       0.12706   0.11948   0.12493   0.09713
H          H       0.30574   0.51168   0.33061   0.11886
H          H       0.37310   0.37926   0.37370   0.09626
H          H       0.81791   0.33116   0.98783   0.11912
H          H       0.75215   0.37435   0.12019   0.09742
H          H       0.13582   0.16877   0.51233   0.11971
H          H       0.24658   0.12572   0.37992   0.09728
H          H       0.34900   0.51617   0.48190   0.10885
H          H       0.26788   0.43698   0.56157   0.10557
H          H       0.34900   0.98190   0.01617   0.10884
H          H       0.26788   0.06157   0.93698   0.10553
H          H       0.86523   0.48288   0.98288   0.10822
H          H       0.70448   0.56227   0.06227   0.10569
H          H       0.33077   0.01715   0.51715   0.10888
H          H       0.32976   0.93774   0.43774   0.10640
H          H       0.65100   0.01810   0.98383   0.10876
H          H       0.73213   0.93843   0.06302   0.10556
H          H       0.65100   0.48383   0.51810   0.10878
H          H       0.73213   0.56302   0.43843   0.10554
H          H       0.13477   0.51713   0.01712   0.10812
H          H       0.29552   0.43773   0.93773   0.10564
H          H       0.66923   0.98285   0.48285   0.10871
H          H       0.67024   0.06226   0.56226   0.10647
C          C       0.03281   0.58409   0.55684   0.21395
C          C       0.14385   0.60050   0.54270  -0.23889
C          C       0.17438   0.91555   0.94244   0.21717
C          C       0.28828   0.89838   0.95611  -0.24077
C          C       0.61693   0.55724   0.91569   0.21665
C          C       0.74450   0.54334   0.89891  -0.24191
C          C       0.08969   0.94277   0.58433   0.21832
C          C       0.18640   0.95672   0.60110  -0.24324
C          C       0.96719   0.94317   0.91591   0.21417
C          C       0.85615   0.95731   0.89950  -0.23904
C          C       0.82562   0.55756   0.58446   0.21719
C          C       0.71173   0.54389   0.60162  -0.24072
C          C       0.38307   0.58431   0.94276   0.21663
C          C       0.25550   0.60109   0.95666  -0.24183
C          C       0.91032   0.91567   0.55723   0.21828
C          C       0.81360   0.89890   0.54328  -0.24325
C          C       0.96719   0.41591   0.44317   0.21409
C          C       0.85615   0.39950   0.45731  -0.23907
C          C       0.82562   0.08445   0.05756   0.21714
C          C       0.71173   0.10162   0.04389  -0.24075
C          C       0.38307   0.44276   0.08431   0.21660
C          C       0.25550   0.45666   0.10109  -0.24180
C          C       0.91032   0.05723   0.41567   0.21822
C          C       0.81360   0.04328   0.39890  -0.24323
C          C       0.03281   0.05684   0.08409   0.21406
C          C       0.14385   0.04270   0.10050  -0.23893
C          C       0.17438   0.44244   0.41555   0.21711
C          C       0.28828   0.45611   0.39838  -0.24077
C          C       0.61693   0.41569   0.05724   0.21667
C          C       0.74450   0.39891   0.04334  -0.24194
C          C       0.08969   0.08433   0.44277   0.21820
C          C       0.18640   0.10110   0.45672  -0.24326
C          C       0.05280   0.50693   0.49280  -0.06341
C          C       0.26838   0.49929   0.49929  -0.12712
C          C       0.05280   0.99280   0.00693  -0.06343
C          C       0.26838  -0.00071  -0.00071  -0.12700
C          C       0.55977   0.49292   0.99292  -0.06516
C          C       0.76765   0.50000   0.00000  -0.12496
C          C       0.04560   0.00702   0.50702  -0.06592
C          C       0.26764   0.00001   0.50001  -0.12752
C          C       0.94720   0.00720   0.99307  -0.06351
C          C       0.73162   0.00071   0.00071  -0.12710
C          C       0.94720   0.49307   0.50720  -0.06353
C          C       0.73162   0.50071   0.50071  -0.12721
C          C       0.44023   0.50708   0.00708  -0.06512
C          C       0.23235   0.50000  -0.00000  -0.12510
C          C       0.95440   0.99298   0.49298  -0.06602
C          C       0.73236  -0.00001   0.49999  -0.12749
I          I       0.64504   0.85503   0.85452  -0.38127
I          I       0.35496   0.64548   0.64497  -0.38135
I          I       0.50000   0.85541   0.64460  -0.38062
I          I       0.00000   0.64542   0.85459  -0.37967
I          I       0.35496   0.14497   0.14548  -0.38132
I          I       0.64504   0.35452   0.35503  -0.38128
I          I       0.50000   0.14459   0.35541  -0.38060
I          I       0.00000   0.35459   0.14542  -0.37966
N          N       0.91622   0.64210   0.62964  -0.13221
N          N       0.18834   0.85803   0.86974  -0.13594
N          N       0.55820   0.63006   0.85793  -0.13433
N          N       0.04595   0.87008   0.64223  -0.13388
N          N       0.08378   0.87036   0.85791  -0.13238
N          N       0.81166   0.63026   0.64197  -0.13603
N          N       0.44180   0.64207   0.86994  -0.13427
N          N       0.95405   0.85777   0.62993  -0.13406
N          N       0.08378   0.35790   0.37036  -0.13232
N          N       0.81166   0.14197   0.13026  -0.13600
N          N       0.44180   0.36994   0.14207  -0.13429
N          N       0.95405   0.12993   0.35777  -0.13397
N          N       0.91622   0.12964   0.14210  -0.13223
N          N       0.18834   0.36974   0.35803  -0.13592
N          N       0.55820   0.35793   0.13006  -0.13432
N          N       0.04595   0.14223   0.37008  -0.13387

