data_crystal

_audit_creation_method 'AiiDA-DDEC plugin'

_cell_length_a         6.92989
_cell_length_b        19.01401
_cell_length_c        19.69552

_cell_angle_alpha     90.95425
_cell_angle_beta     84.45273
_cell_angle_gamma     91.00901

_symmetry_space_group_name_Hall 'P 1'
_symmetry_space_group_name_H-M  'P 1'

loop_
_symmetry_equiv_pos_as_xyz
 'x,y,z'

loop_
_atom_site_label
_atom_site_type_symbol
_atom_site_fract_x
_atom_site_fract_y
_atom_site_fract_z
_atom_site_charge
Cu         Cu      0.54218   0.71345   0.26908  -0.05723
Cu         Cu      0.48671   0.86093   0.24905  -0.01930
Cu         Cu      0.69510   0.23933   0.77384  -0.03528
Cu         Cu      0.80335   0.28331   0.66065   0.08073
Cu         Cu      0.67103   0.78958   0.16776   0.12239
Cu         Cu      0.50460   0.80856   0.36518   0.11202
Cu         Cu      0.79474   0.36829   0.76062   0.09031
Cu         Cu      0.15158   0.16121   0.72385   0.08744
Cu         Cu      0.74286   0.55718   0.51861   0.22511
Cu         Cu      0.78217   0.02469   0.97126   0.23024
Cu         Cu      0.79426   0.52420   0.02642   0.23028
Cu         Cu      0.14556   0.08312   0.44522   0.22921
Cu         Cu      0.32801   0.22462   0.80463   0.06746
Cu         Cu      0.49526   0.19679   0.67889  -0.01734
Cu         Cu      0.24691   0.63673   0.24226   0.05948
Cu         Cu      0.81212   0.82242   0.27526   0.06665
Cu         Cu      0.48759   0.32132   0.72403   0.03460
Cu         Cu      0.46391   0.11180   0.77231   0.04928
Cu         Cu      0.28582   0.75868   0.20979   0.01114
Cu         Cu      0.20401   0.72894   0.32976   0.04001
Cu         Cu      0.23509   0.47066   0.98207   0.23074
Cu         Cu      0.85674   0.92242   0.55102   0.22762
Cu         Cu      0.28577   0.42469   0.46092   0.21177
Cu         Cu      0.15688   0.98962   0.03675   0.22632
H          H       0.73958   0.57120   0.35856   0.10966
H          H       0.58732   0.71517   0.51895   0.09385
H          H       0.51738   0.03154   0.11089   0.09672
H          H       0.79870   0.86141   0.00698   0.10023
H          H       0.67033   0.17801   0.92973   0.10597
H          H       0.05605   0.03144   0.83108   0.09165
H          H       0.82024   0.39637   0.51342   0.09364
H          H       0.82571   0.54048   0.67747   0.09658
H          H       0.91177   0.68306   0.04140   0.09587
H          H       0.65644   0.54144   0.18673   0.09376
H          H       0.32189   0.94664   0.47869   0.09436
H          H       0.22143   0.02190   0.28514   0.10863
H          H       0.89668   0.50387   0.86298   0.09384
H          H       0.61868   0.37238   0.01257   0.09022
H          H       0.25766   0.08626   0.58384   0.09796
H          H       0.88472   0.22788   0.50127   0.10405
H          H       0.08811   0.31344   0.94171   0.10323
H          H       0.40195   0.47240   0.83100   0.09482
H          H       0.72827   0.07499   0.53611   0.08704
H          H       0.71201   0.95321   0.71323   0.10165
H          H       0.15310   0.49485   0.14704   0.09224
H          H       0.40227   0.62192   0.98838   0.08964
H          H       0.76274   0.92226   0.40938   0.09600
H          H       0.11141   0.77490   0.49597   0.10477
H          H       0.29597   0.43427   0.61272   0.10342
H          H       0.40873   0.25818   0.48362   0.08929
H          H       0.41611   0.98323   0.89732   0.09741
H          H       0.15211   0.15531   0.00389   0.09814
H          H       0.29574   0.83872   0.06310   0.10205
H          H       0.88615   0.96386   0.17913   0.09627
H          H       0.17382   0.57889   0.48627   0.08670
H          H       0.24643   0.46446   0.30121   0.09391
C          C       0.68827   0.61736   0.38711   0.13859
C          C       0.61099   0.69081   0.46888   0.10276
C          C       0.57093   0.97932   0.09828   0.08822
C          C       0.71293   0.89262   0.04470   0.09972
C          C       0.77177   0.15174   0.89300   0.11137
C          C       0.96490   0.07657   0.84182   0.09925
C          C       0.83283   0.41893   0.56361   0.10618
C          C       0.83428   0.49244   0.64725   0.09195
C          C       0.84176   0.66097   0.08784   0.11882
C          C       0.71459   0.58881   0.16237   0.11654
C          C       0.31917   0.95144   0.42409   0.10486
C          C       0.26761   0.99003   0.32543   0.11222
C          C       0.82179   0.45987   0.88840   0.08826
C          C       0.68154   0.39218   0.96407   0.08749
C          C       0.15252   0.12666   0.57828   0.09706
C          C       0.96482   0.19928   0.53604   0.09800
C          C       0.17217   0.34190   0.90167   0.13154
C          C       0.32818   0.42327   0.84443   0.10938
C          C       0.69842   0.05730   0.58806   0.10608
C          C       0.69071   0.99511   0.67826   0.10212
C          C       0.22008   0.53856   0.11869   0.08880
C          C       0.34535   0.60408   0.03839   0.08487
C          C       0.85823   0.87902   0.41608   0.09576
C          C       0.03389   0.80369   0.46053   0.09681
C          C       0.33681   0.38233   0.59381   0.12279
C          C       0.39518   0.29248   0.52816   0.09897
C          C       0.36575   0.03557   0.91114   0.08329
C          C       0.23276   0.12371   0.96513   0.10623
C          C       0.19148   0.85837   0.10290   0.10769
C          C       0.98724   0.92281   0.16318   0.10046
C          C       0.18180   0.56512   0.43254   0.09602
C          C       0.22029   0.50647   0.33852   0.08644
N          N       0.63133   0.67508   0.35852  -0.08522
N          N       0.58165   0.72256   0.41113  -0.14002
N          N       0.67800   0.62422   0.45673  -0.30225
N          N       0.53988   0.92423   0.13882  -0.17598
N          N       0.63183   0.86828   0.10400  -0.13179
N          N       0.67952   0.96266   0.03825  -0.31174
N          N       0.82870   0.17772   0.83173  -0.06482
N          N       0.95680   0.12985   0.79906  -0.11783
N          N       0.85182   0.08788   0.90145  -0.29699
N          N       0.86825   0.38227   0.61766  -0.12861
N          N       0.86915   0.42957   0.67211  -0.15499
N          N       0.80926   0.48896   0.57910  -0.31194
N          N       0.79313   0.69837   0.14440  -0.13011
N          N       0.71215   0.65173   0.19290  -0.11380
N          N       0.79575   0.59150   0.09634  -0.28914
N          N       0.39079   0.90419   0.37839  -0.12957
N          N       0.35809   0.92931   0.31488  -0.08339
N          N       0.24002   0.00664   0.39343  -0.31073
N          N       0.77950   0.39945   0.85714  -0.10850
N          N       0.68886   0.35539   0.90611  -0.21772
N          N       0.76304   0.45844   0.95651  -0.32046
N          N       0.07614   0.16623   0.62987  -0.08336
N          N       0.95591   0.21306   0.60279  -0.08107
N          N       0.08630   0.14486   0.51794  -0.31880
N          N       0.22248   0.31518   0.83968  -0.10297
N          N       0.32270   0.36795   0.80250  -0.11964
N          N       0.23490   0.40979   0.90723  -0.29457
N          N       0.60519   0.09508   0.63784  -0.11899
N          N       0.59966   0.05468   0.69607  -0.12189
N          N       0.75553   0.99359   0.61041  -0.30996
N          N       0.26014   0.60093   0.14650  -0.10209
N          N       0.34046   0.64360   0.09456  -0.21227
N          N       0.27089   0.53733   0.05007  -0.32374
N          N       0.92230   0.83520   0.36581  -0.08658
N          N       0.03664   0.78691   0.39436  -0.07675
N          N       0.92406   0.86187   0.47676  -0.31578
N          N       0.38621   0.33079   0.63274  -0.09921
N          N       0.42456   0.27244   0.59071  -0.15203
N          N       0.34047   0.36135   0.52699  -0.31613
N          N       0.39840   0.09137   0.87127  -0.12796
N          N       0.31353   0.14850   0.90630  -0.17419
N          N       0.26031   0.05290   0.97124  -0.31337
N          N       0.14323   0.82439   0.16084  -0.07292
N          N       0.00840   0.86528   0.19941  -0.11582
N          N       0.09820   0.92081   0.10206  -0.30076
N          N       0.15402   0.61012   0.38392  -0.17143
N          N       0.17882   0.57226   0.32297  -0.13407
N          N       0.22450   0.49883   0.40719  -0.31377

