data_crystal

_audit_creation_method 'AiiDA-DDEC plugin'

_cell_length_a        10.78861
_cell_length_b        16.65290
_cell_length_c        17.61787

_cell_angle_alpha     113.94921
_cell_angle_beta     92.25135
_cell_angle_gamma     99.77135

_symmetry_space_group_name_Hall 'P 1'
_symmetry_space_group_name_H-M  'P 1'

loop_
_symmetry_equiv_pos_as_xyz
 'x,y,z'

loop_
_atom_site_label
_atom_site_type_symbol
_atom_site_fract_x
_atom_site_fract_y
_atom_site_fract_z
_atom_site_charge
K          K       0.73223   0.23484   0.99202   0.89655
K          K       0.26777   0.76516   0.00798   0.89654
La         La      0.08407   0.14520   0.01636   2.06101
La         La      0.36967   0.34093   0.99555   2.03681
La         La      0.43518   0.87052   0.42200   1.99593
La         La      0.91593   0.85479   0.98363   2.06099
La         La      0.63033   0.65907   0.00445   2.03686
La         La      0.56482   0.12948   0.57800   1.99596
H          H       0.12163   0.98538   0.81364   0.15759
H          H       0.07113   0.45149   0.86636   0.16040
H          H       0.85446   0.51983   0.87582   0.13879
H          H       0.37514   0.04911   0.14245   0.14170
H          H       0.12246   0.86789   0.65008   0.16076
H          H       0.79670   0.78400   0.73860   0.16367
H          H       0.58290   0.96931   0.12524   0.14282
H          H       0.19343   0.60922   0.39790   0.15389
H          H       0.64313   0.76910   0.60139   0.15596
H          H       0.06210   0.43375   0.31855   0.15307
H          H       0.87837   0.01462   0.18636   0.15765
H          H       0.92887   0.54851   0.13364   0.16037
H          H       0.14554   0.48017   0.12417   0.13878
H          H       0.62486   0.95089   0.85755   0.14173
H          H       0.87754   0.13211   0.34992   0.16071
H          H       0.20330   0.21600   0.26140   0.16362
H          H       0.41710   0.03069   0.87475   0.14279
H          H       0.80658   0.39078   0.60209   0.15403
H          H       0.35687   0.23090   0.39861   0.15581
H          H       0.93790   0.56624   0.68144   0.15309
C          C       0.41580   0.19340   0.08034   0.58247
C          C       0.49236   0.13469   0.09483   0.07678
C          C       0.25211   0.98314   0.64729   0.06606
C          C       0.20408   0.42460   0.23155   0.05896
C          C       0.66119   0.43388   0.95380   0.60394
C          C       0.24907   0.07756   0.77775   0.09717
C          C       0.78581   0.05876   0.05566   0.58825
C          C       0.96443   0.37080   0.92296   0.08406
C          C       0.65960   0.07105   0.08174   0.08025
C          C       0.04785   0.31817   0.94257   0.58959
C          C       0.16811   0.33832   0.15820   0.56504
C          C       0.78900   0.42527   0.92985   0.06543
C          C       0.17029   0.99782   0.76584  -0.15520
C          C       0.28942   0.16345   0.85183   0.55703
C          C       0.98445   0.43326   0.88983  -0.16504
C          C       0.89906   0.97507   0.85154   0.56819
C          C       0.87259   0.46826   0.89456  -0.15578
C          C       0.62561   0.94951   0.61254   0.60267
C          C       0.46370   0.06654   0.12059  -0.15951
C          C       0.69346   0.91597   0.66316   0.05233
C          C       0.81629   0.92734   0.77114   0.08479
C          C       0.17219   0.93711   0.68205  -0.14861
C          C       0.29711   0.95470   0.56552   0.56739
C          C       0.77299   0.83664   0.72297  -0.16805
C          C       0.57052   0.02557   0.11183  -0.16930
C          C       0.21307   0.55602   0.34184  -0.18991
C          C       0.31036   0.56450   0.29515   0.08827
C          C       0.69442   0.82929   0.65322  -0.16006
C          C       0.14538   0.46574   0.30130  -0.17025
C          C       0.41246   0.63999   0.30223   0.56665
C          C       0.58420   0.80660   0.91965   0.58245
C          C       0.50764   0.86530   0.90516   0.07696
C          C       0.74789   0.01686   0.35271   0.06605
C          C       0.79592   0.57540   0.76844   0.05902
C          C       0.33881   0.56612   0.04619   0.60372
C          C       0.75093   0.92244   0.22224   0.09724
C          C       0.21419   0.94124   0.94433   0.58830
C          C       0.03558   0.62920   0.07704   0.08415
C          C       0.34040   0.92894   0.91826   0.08019
C          C       0.95215   0.68183   0.05742   0.58957
C          C       0.83189   0.66168   0.84180   0.56494
C          C       0.21100   0.57472   0.07015   0.06551
C          C       0.82971   0.00218   0.23416  -0.15518
C          C       0.71058   0.83654   0.14817   0.55687
C          C       0.01555   0.56673   0.11017  -0.16519
C          C       0.10094   0.02492   0.14845   0.56821
C          C       0.12741   0.53173   0.10544  -0.15576
C          C       0.37440   0.05049   0.38746   0.60281
C          C       0.53630   0.93346   0.87941  -0.15943
C          C       0.30655   0.08403   0.33684   0.05235
C          C       0.18371   0.07265   0.22886   0.08492
C          C       0.82781   0.06288   0.31795  -0.14872
C          C       0.70289   0.04530   0.43448   0.56757
C          C       0.22701   0.16336   0.27703  -0.16826
C          C       0.42948   0.97443   0.88817  -0.16938
C          C       0.78694   0.44397   0.65815  -0.18985
C          C       0.68964   0.43550   0.70485   0.08855
C          C       0.30558   0.17070   0.34678  -0.16008
C          C       0.85462   0.53426   0.69870  -0.17016
C          C       0.58758   0.36000   0.69776   0.56637
O          O       0.81804   0.98785   0.05226  -0.62735
O          O       0.46953   0.24972   0.05233  -0.68753
O          O       0.30247   0.18168   0.09507  -0.59919
O          O       0.92601   0.92564   0.88656  -0.64616
O          O      -0.00038   0.26158   0.97008  -0.64323
O          O       0.61295   0.13873   0.07196  -0.16176
O          O       0.84438   0.36454   0.94687  -0.16348
O          O       0.85013   0.11974   0.03829  -0.66440
O          O       0.23724   0.17401   0.91878  -0.67719
O          O       0.60123   0.37597   0.97694  -0.66660
O          O       0.16347   0.33768   0.93133  -0.63255
O          O       0.93854   0.05924   0.87871  -0.61191
O          O       0.76863   0.97670   0.73509  -0.09138
O          O       0.37569   0.22403   0.84875  -0.58891
O          O       0.22471   0.32950   0.09281  -0.70798
O          O       0.37632   0.01198   0.54968  -0.71312
O          O       0.30628   0.48422   0.22810  -0.10137
O          O       0.61869   0.49931   0.95029  -0.65169
O          O       0.08143   0.27774   0.15982  -0.57843
O          O       0.30019   0.06941   0.70522  -0.10683
O          O       0.63759   0.03439   0.63645  -0.64341
O          O       0.26192   0.87365   0.51182  -0.58015
O          O       0.55633   0.88908   0.54654  -0.64564
O          O       0.38952   0.71934   0.35196  -0.74482
O          O       0.50591   0.62728   0.26467  -0.48740
O          O       0.18196   0.01214   0.94773  -0.62740
O          O       0.53047   0.75027   0.94767  -0.68755
O          O       0.69754   0.81832   0.90493  -0.59915
O          O       0.07399   0.07435   0.11344  -0.64630
O          O       0.00038   0.73841   0.02992  -0.64324
O          O       0.38705   0.86127   0.92804  -0.16179
O          O       0.15562   0.63545   0.05313  -0.16355
O          O       0.14987   0.88026   0.96171  -0.66439
O          O       0.76276   0.82599   0.08122  -0.67706
O          O       0.39877   0.62402   0.02306  -0.66655
O          O       0.83653   0.66231   0.06867  -0.63260
O          O       0.06146   0.94076   0.12128  -0.61184
O          O       0.23137   0.02330   0.26490  -0.09118
O          O       0.62431   0.77596   0.15125  -0.58891
O          O       0.77529   0.67049   0.90718  -0.70801
O          O       0.62368   0.98801   0.45031  -0.71311
O          O       0.69373   0.51578   0.77190  -0.10169
O          O       0.38131   0.50069   0.04970  -0.65149
O          O       0.91857   0.72226   0.84017  -0.57836
O          O       0.69982   0.93059   0.29478  -0.10681
O          O       0.36241   0.96561   0.36355  -0.64334
O          O       0.73808   0.12634   0.48818  -0.58039
O          O       0.44367   0.11092   0.45346  -0.64583
O          O       0.61048   0.28066   0.64804  -0.74445
O          O       0.49407   0.37271   0.73534  -0.48778

