data_crystal

_audit_creation_method 'AiiDA-DDEC plugin'

_cell_length_a        12.63053
_cell_length_b        14.02413
_cell_length_c        14.02413

_cell_angle_alpha     78.21070
_cell_angle_beta     63.12024
_cell_angle_gamma     63.12024

_symmetry_space_group_name_Hall 'P 1'
_symmetry_space_group_name_H-M  'P 1'

loop_
_symmetry_equiv_pos_as_xyz
 'x,y,z'

loop_
_atom_site_label
_atom_site_type_symbol
_atom_site_fract_x
_atom_site_fract_y
_atom_site_fract_z
_atom_site_charge
Cu         Cu      0.82295   0.52883  -0.00047   0.29877
Cu         Cu      0.35095   0.47152   0.00059   0.29819
Cu         Cu      0.60152   0.49945   0.97114   0.29732
Cu         Cu      0.07260   0.50045   0.02849   0.29908
Cu         Cu      0.82295  -0.00047   0.52883   0.29875
Cu         Cu      0.35095   0.00059   0.47152   0.29817
Cu         Cu      0.60152   0.97113   0.49945   0.29735
Cu         Cu      0.07260   0.02849   0.50045   0.29910
H          H       0.03402   0.59616   0.24596   0.12008
H          H       0.09466   0.63992   0.11313   0.10291
H          H       0.55882   0.76585   0.07298   0.11912
H          H       0.57460   0.63576   0.12082   0.10071
H          H       0.87782   0.40267   0.75266   0.12024
H          H       0.84920   0.35888   0.88550   0.10402
H          H       0.39697   0.23537   0.92813   0.11939
H          H       0.33008   0.36552   0.88051   0.09996
H          H       0.88000   0.74679   0.90322   0.12085
H          H       0.98469   0.61388   0.85953   0.10353
H          H       0.57536   0.57249   0.73460   0.12000
H          H       0.46055   0.62010   0.86481   0.10099
H          H       0.53053   0.25346   0.09673   0.11984
H          H       0.45782   0.38624   0.14063   0.10352
H          H       0.88165   0.42766   0.26512   0.11935
H          H       0.94564   0.37972   0.13508   0.10080
H          H       0.03402   0.24596   0.59616   0.12003
H          H       0.09466   0.11313   0.63992   0.10297
H          H       0.55882   0.07298   0.76585   0.11916
H          H       0.57460   0.12082   0.63576   0.10070
H          H       0.87782   0.75266   0.40267   0.12031
H          H       0.84920   0.88550   0.35888   0.10402
H          H       0.39697   0.92813   0.23537   0.11935
H          H       0.33008   0.88051   0.36553   0.10009
H          H       0.88000   0.90322   0.74680   0.12081
H          H       0.98469   0.85953   0.61388   0.10334
H          H       0.57536   0.73459   0.57249   0.12000
H          H       0.46055   0.86481   0.62010   0.10095
H          H       0.53053   0.09673   0.25346   0.11985
H          H       0.45782   0.14063   0.38624   0.10353
H          H       0.88165   0.26512   0.42766   0.11933
H          H       0.94564   0.13508   0.37972   0.10081
H          H       0.07631   0.75208   0.24590   0.11216
H          H       0.98571   0.82814   0.17050   0.10388
H          H       0.34950   0.78252   0.21952   0.10946
H          H       0.42400   0.69847   0.30301   0.10651
H          H       0.07631   0.24589   0.75208   0.11217
H          H       0.98571   0.17050   0.82814   0.10393
H          H       0.34950   0.21952   0.78253   0.10955
H          H       0.42400   0.30301   0.69847   0.10649
H          H       0.07838   0.74694   0.74694   0.11310
H          H       0.06427   0.67119   0.67119   0.10578
H          H       0.38222   0.71844   0.71844   0.11187
H          H       0.37215   0.80225   0.80226   0.10710
H          H       0.57220   0.25313   0.25313   0.11237
H          H       0.40580   0.32887   0.32887   0.10432
H          H       0.81895   0.28148   0.28148   0.11155
H          H       0.97740   0.19771   0.19771   0.10769
C          C       0.89156   0.67621   0.18253   0.21905
C          C       0.67477   0.69887   0.16083   0.22047
C          C       0.01112   0.66334   0.19133  -0.24578
C          C       0.56022   0.71303   0.14293  -0.24327
C          C       0.75099   0.32351   0.81665   0.21499
C          C       0.53407   0.30190   0.83944   0.21646
C          C       0.86713   0.33564   0.80742  -0.24471
C          C       0.41527   0.28817   0.85813  -0.24305
C          C       0.81769   0.68296   0.82366   0.21634
C          C       0.62366   0.66071   0.80152   0.21792
C          C       0.92445   0.69200   0.83617  -0.24509
C          C       0.52349   0.64240   0.78753  -0.24394
C          C       0.32430   0.31709   0.17640   0.21441
C          C       0.08570   0.33936   0.19855   0.21953
C          C       0.45265   0.30809   0.16390  -0.24398
C          C       0.95319   0.35759   0.21243  -0.24235
C          C       0.89156   0.18253   0.67622   0.21917
C          C       0.67477   0.16083   0.69887   0.22043
C          C       0.01112   0.19133   0.66334  -0.24586
C          C       0.56022   0.14292   0.71303  -0.24318
C          C       0.75098   0.81665   0.32351   0.21493
C          C       0.53407   0.83944   0.30191   0.21652
C          C       0.86713   0.80742   0.33564  -0.24472
C          C       0.41527   0.85812   0.28817  -0.24321
C          C       0.81769   0.82366   0.68296   0.21634
C          C       0.62366   0.80152   0.66072   0.21797
C          C       0.92445   0.83617   0.69200  -0.24490
C          C       0.52349   0.78753   0.64240  -0.24399
C          C       0.32430   0.17640   0.31710   0.21445
C          C       0.08570   0.19855   0.33936   0.21952
C          C       0.45265   0.16390   0.30809  -0.24399
C          C       0.95319   0.21243   0.35759  -0.24231
C          C       0.76800   0.75183   0.24789  -0.06708
C          C       0.65749   0.76365   0.23662  -0.06702
C          C       0.99125   0.76613   0.23247  -0.12070
C          C       0.43109   0.76031   0.24113  -0.11998
C          C       0.76800   0.24789   0.75183  -0.06713
C          C       0.65749   0.23661   0.76365  -0.06701
C          C       0.99125   0.23247   0.76614  -0.12070
C          C       0.43109   0.24113   0.76031  -0.12014
C          C       0.76986   0.74804   0.74804  -0.06797
C          C       0.67121   0.73649   0.73649  -0.06688
C          C       0.00747   0.73318   0.73319  -0.12541
C          C       0.44145   0.74039   0.74039  -0.12386
C          C       0.26588   0.25202   0.25202  -0.06533
C          C       0.14405   0.26357   0.26357  -0.06934
C          C       0.47365   0.26687   0.26687  -0.12144
C          C       0.92225   0.25958   0.25958  -0.12466
Br         Br      0.05605   0.39887   0.91256  -0.42809
Br         Br      0.36665   0.60158   0.08709  -0.42785
Br         Br      0.70431   0.41308   0.10089  -0.42782
Br         Br      0.21850   0.58761   0.89825  -0.42850
Br         Br      0.05605   0.91256   0.39887  -0.42809
Br         Br      0.36665   0.08709   0.60158  -0.42787
Br         Br      0.70431   0.10089   0.41308  -0.42789
Br         Br      0.21850   0.89825   0.58761  -0.42843
N          N       0.79326   0.62591   0.10369  -0.14470
N          N       0.90225   0.61583   0.11326  -0.14697
N          N       0.52283   0.37487   0.89594  -0.14322
N          N       0.63177   0.38451   0.88589  -0.14370
N          N       0.66902   0.60390   0.87447  -0.14405
N          N       0.76784   0.61375   0.88438  -0.14323
N          N       0.14728   0.39617   0.12556  -0.14589
N          N       0.26587   0.38640   0.11574  -0.14337
N          N       0.79326   0.10369   0.62591  -0.14459
N          N       0.90226   0.11325   0.61583  -0.14703
N          N       0.52283   0.89594   0.37488  -0.14313
N          N       0.63177   0.88589   0.38452  -0.14365
N          N       0.66902   0.87446   0.60390  -0.14414
N          N       0.76783   0.88438   0.61375  -0.14332
N          N       0.14728   0.12556   0.39617  -0.14585
N          N       0.26587   0.11574   0.38640  -0.14340

