data_crystal

_audit_creation_method 'AiiDA-DDEC plugin'

_cell_length_a         5.59783
_cell_length_b        15.90303
_cell_length_c        17.04127

_cell_angle_alpha     90.00173
_cell_angle_beta     89.98924
_cell_angle_gamma     89.66094

_symmetry_space_group_name_Hall 'P 1'
_symmetry_space_group_name_H-M  'P 1'

loop_
_symmetry_equiv_pos_as_xyz
 'x,y,z'

loop_
_atom_site_label
_atom_site_type_symbol
_atom_site_fract_x
_atom_site_fract_y
_atom_site_fract_z
_atom_site_charge
Cd         Cd      0.60226   0.29427   0.37410   0.83941
Cd         Cd      0.56056   0.78542   0.17639   0.00029
Cd         Cd      0.89655   0.70568   0.87449   0.84115
Cd         Cd      0.94049   0.21449   0.67587   0.00275
H          H       0.61058   0.12188   0.23719   0.08414
H          H       0.48380   0.28668   0.67737   0.19101
H          H       0.06103   0.05694   0.77857   0.05446
H          H       0.55806   0.44165   0.22267   0.08005
H          H       0.40057   0.19142   0.47349   0.33762
H          H       0.01126   0.45153   0.63819   0.05265
H          H       0.07442   0.37530   0.38813   0.08706
H          H       0.08460   0.44952   0.53840   0.05851
H          H       0.77701   0.57455   0.18965   0.12803
H          H       0.41534   0.55046   0.03847   0.05845
H          H       0.93516   0.93617   0.96199   0.09834
H          H       0.49561   0.79590   0.82086   0.24138
H          H       0.56565   0.93359   0.88893   0.09466
H          H       0.72301   0.42557   0.68961   0.12801
H          H       0.48684   0.05761   0.36104   0.07757
H          H       0.14628   0.68195   0.30069   0.10722
H          H       0.00422   0.20423   0.32077   0.24136
H          H       0.80405   0.99493   0.63518   0.12546
H          H       0.48904   0.54838   0.13821   0.05292
H          H       0.11704   0.37858   0.76418   0.06747
H          H       0.35365   0.31801   0.80055   0.10757
H          H       0.66400   0.81645   0.69607   0.10297
H          H       0.43917   0.94317   0.27859   0.05457
H          H       0.30602   0.50397   0.36253   0.12777
H          H       0.21718   0.07679   0.31099   0.10081
H          H       0.28300   0.92336   0.81104   0.10111
H          H       0.09953   0.80847   0.97346   0.33724
H          H       0.01632   0.71339   0.17748   0.19096
H          H       0.93456   0.06659   0.38890   0.09475
H          H       0.90442   0.31597   0.52984   0.33259
H          H       0.59538   0.68409   0.03006   0.33219
H          H       0.69634   0.00508   0.13518   0.12528
H          H       0.01333   0.94231   0.86102   0.07697
H          H       0.06904   0.56780   0.10726   0.06616
H          H       0.83609   0.18354   0.19595   0.10308
H          H       0.42500   0.62464   0.88820   0.08714
H          H       0.92989   0.87446   0.11686   0.08228
H          H       0.19356   0.49603   0.86250   0.12771
H          H       0.43101   0.43232   0.60721   0.06615
H          H       0.57059   0.12552   0.61679   0.08228
H          H       0.38280   0.62137   0.26430   0.06746
H          H       0.56550   0.06375   0.46186   0.09863
H          H       0.88960   0.87807   0.73733   0.08410
H          H       0.94179   0.55842   0.72272   0.08044
C          C       0.71911   0.45936   0.25433   0.07295
C          C       0.06551   0.40959   0.59024   0.03313
C          C      -0.00481   0.92363   0.15652   0.08093
C          C       0.90022   0.17663   0.46350   0.55843
C          C       0.69772   0.86476   0.74109  -0.06976
C          C       0.93740   0.90144   0.90655   0.02301
C          C       0.67802   0.87619   0.89015  -0.06456
C          C       0.63768   0.00289   0.66761  -0.20226
C          C       0.50525   0.07641   0.65650   0.08059
C          C       0.65911   0.46695   0.73612  -0.19940
C          C       0.43464   0.59035   0.09032   0.03204
C          C       0.44469   0.44650   0.77425   0.13963
C          C       0.15667   0.03689   0.26296  -0.23655
C          C       0.34359   0.96324   0.76299  -0.23663
C          C       0.94431   0.05618   0.22319   0.11022
C          C       0.05507   0.55354   0.27429   0.13951
C          C       0.55600   0.94389   0.72323   0.10983
C          C       0.86274   0.99715   0.16759  -0.20250
C          C       0.31689   0.37611   0.60813  -0.03033
C          C       0.35912   0.50550   0.82998  -0.18838
C          C       0.84074   0.53312   0.23613  -0.19956
C          C       0.14049   0.49451   0.33002  -0.18906
C          C       0.27857   0.96253   0.24655   0.07361
C          C       0.19098   0.63380   0.25594  -0.09197
C          C       0.10558   0.67784   0.03761   0.59661
C          C       0.56284   0.09853   0.40648   0.02143
C          C       0.22170   0.03758   0.74654   0.07396
C          C       0.30892   0.36622   0.75586  -0.09284
C          C       0.39475   0.32222   0.53759   0.59673
C          C       0.01145   0.42182   0.34524   0.05813
C          C       0.18336   0.62396   0.10820  -0.02941
C          C       0.59932   0.82356   0.96360   0.55809
C          C       0.82198   0.12392   0.39006  -0.06401
C          C       0.48813   0.57817   0.84527   0.05780
C          C       0.78072   0.54070   0.75437   0.07251
C          C       0.80240   0.13528   0.24101  -0.07063
N          N       0.79990   0.40394   0.30956  -0.27655
N          N       0.69983   0.59609   0.80964  -0.27658
N          N       0.65802   0.82445   0.81841  -0.35530
N          N       0.30000   0.09381   0.69338  -0.21153
N          N       0.33675   0.32551   0.67944  -0.29787
N          N       0.16342   0.67456   0.17953  -0.29872
N          N       0.84191   0.17562   0.31830  -0.35489
N          N       0.20036   0.90626   0.19342  -0.21107
O          O       0.09292   0.75624   0.04815  -0.47935
O          O       0.09420   0.82819   0.91458  -0.49834
O          O       0.42850   0.36174   0.47223  -0.57817
O          O       0.40595   0.17174   0.41462  -0.49752
O          O       0.59193   0.74197   0.95419  -0.57088
O          O       0.56897   0.86296   0.02483  -0.46693
O          O       0.61639   0.65086   0.08041  -0.46561
O          O       0.40723   0.24382   0.54814  -0.47974
O          O       0.92996   0.13730   0.52483  -0.46702
O          O       0.07177   0.63832   0.97228  -0.57840
O          O       0.88402   0.34899   0.58036  -0.46582
O          O       0.90814   0.25817   0.45393  -0.57113

