data_crystal

_audit_creation_method 'AiiDA-DDEC plugin'

_cell_length_a        11.52871
_cell_length_b        12.26339
_cell_length_c        12.68262

_cell_angle_alpha     90.02951
_cell_angle_beta     118.26609
_cell_angle_gamma     89.92337

_symmetry_space_group_name_Hall 'P 1'
_symmetry_space_group_name_H-M  'P 1'

loop_
_symmetry_equiv_pos_as_xyz
 'x,y,z'

loop_
_atom_site_label
_atom_site_type_symbol
_atom_site_fract_x
_atom_site_fract_y
_atom_site_fract_z
_atom_site_charge
Cu         Cu      0.17790   0.96793   0.46624   0.87211
Cu         Cu      0.32056   0.46690   0.03234   0.87299
Cu         Cu      0.82210   0.03207   0.53376   0.87206
Cu         Cu      0.67944   0.53310   0.96765   0.87291
H          H       0.09645   0.76404   0.14581   0.13064
H          H       0.11653   0.61173   0.02520   0.10928
H          H       0.51874   0.58515   0.25043   0.10661
H          H       0.51424   0.74066   0.37954   0.12644
H          H       0.40242   0.26382   0.35231   0.13076
H          H       0.38302   0.11289   0.47506   0.11031
H          H       0.98070   0.08657   0.25114   0.10696
H          H       0.98432   0.24012   0.11972   0.12647
H          H       0.00866   0.20073   0.73080   0.13677
H          H       0.08708   0.35293   0.88237   0.09904
H          H       0.40695   0.17272   0.78691   0.13175
H          H       0.47026   0.32261   0.94059   0.09604
H          H       0.49157   0.70206   0.76975   0.13742
H          H       0.41213   0.85220   0.61558   0.09837
H          H       0.09302   0.67347   0.71240   0.13176
H          H       0.02891   0.82130   0.55683   0.09596
H          H       0.99134   0.79926   0.26920   0.13679
H          H       0.91292   0.64706   0.11763   0.09904
H          H       0.59305   0.82728   0.21309   0.13167
H          H       0.52974   0.67739   0.05941   0.09608
H          H       0.50843   0.29794   0.23025   0.13741
H          H       0.58787   0.14780   0.38442   0.09839
H          H       0.90698   0.32653   0.28760   0.13174
H          H       0.97109   0.17870   0.44317   0.09598
H          H       0.90355   0.23595   0.85419   0.13066
H          H       0.88347   0.38827   0.97480   0.10926
H          H       0.48126   0.41484   0.74957   0.10655
H          H       0.48576   0.25934   0.62046   0.12652
H          H       0.59758   0.73618   0.64769   0.13082
H          H       0.61698   0.88711   0.52494   0.11035
H          H       0.01930   0.91343   0.74886   0.10692
H          H       0.01568   0.75988   0.88028   0.12643
C          C       0.29649   0.84926   0.35598   0.54368
C          C       0.19195   0.72720   0.17166  -0.13994
C          C       0.20295   0.64294   0.10332   0.08481
C          C       0.30406   0.76335   0.27373   0.02593
C          C       0.42844   0.62853   0.23102   0.08448
C          C       0.42466   0.71356   0.30202  -0.15049
C          C       0.20249   0.34738   0.14197   0.54558
C          C       0.30716   0.22710   0.32734  -0.14048
C          C       0.29654   0.14375   0.39669   0.08546
C          C       0.19480   0.26256   0.22495   0.02531
C          C       0.07083   0.12947   0.26950   0.08225
C          C       0.07417   0.21351   0.19741  -0.14846
C          C       0.15621   0.08729   0.65274   0.58070
C          C       0.20268   0.17529   0.74744   0.02394
C          C       0.11151   0.22607   0.77476  -0.14639
C          C       0.15385   0.30981   0.85846   0.07989
C          C       0.33409   0.20977   0.80726  -0.14836
C          C       0.36982   0.29251   0.89222   0.09044
C          C       0.34436   0.58798   0.84734   0.58169
C          C       0.29759   0.67636   0.75280   0.02280
C          C       0.38846   0.72689   0.72504  -0.14647
C          C       0.34557   0.80960   0.64001   0.08039
C          C       0.16590   0.71021   0.69202  -0.14886
C          C       0.12971   0.79203   0.60596   0.09180
C          C       0.84379   0.91271   0.34726   0.58084
C          C       0.79732   0.82471   0.25256   0.02388
C          C       0.88849   0.77393   0.22524  -0.14641
C          C       0.84615   0.69019   0.14153   0.07992
C          C       0.66591   0.79022   0.19274  -0.14826
C          C       0.63018   0.70749   0.10778   0.09030
C          C       0.65564   0.41201   0.15266   0.58166
C          C       0.70241   0.32364   0.24720   0.02277
C          C       0.61154   0.27310   0.27495  -0.14643
C          C       0.65443   0.19040   0.35999   0.08028
C          C       0.83410   0.28978   0.30798  -0.14881
C          C       0.87029   0.20797   0.39404   0.09170
C          C       0.70351   0.15074   0.64402   0.54348
C          C       0.80805   0.27280   0.82834  -0.13995
C          C       0.79705   0.35705   0.89668   0.08474
C          C       0.69594   0.23665   0.72626   0.02607
C          C       0.57156   0.37147   0.76898   0.08452
C          C       0.57534   0.28643   0.69798  -0.15048
C          C       0.79751   0.65262   0.85803   0.54568
C          C       0.69284   0.77289   0.67265  -0.14049
C          C       0.70346   0.85625   0.60331   0.08538
C          C       0.80520   0.73744   0.77505   0.02531
C          C       0.92917   0.87053   0.73050   0.08229
C          C       0.92583   0.78649   0.80259  -0.14849
N          N       0.31948   0.59410   0.13322  -0.22963
N          N       0.18003   0.09540   0.36725  -0.22677
N          N       0.28104   0.34185   0.91723  -0.23514
N          N       0.21814   0.84135   0.58064  -0.23826
N          N       0.71896   0.65815   0.08277  -0.23502
N          N       0.78186   0.15865   0.41936  -0.23810
N          N       0.68052   0.40590   0.86678  -0.22974
N          N       0.81997   0.90460   0.63275  -0.22671
O          O       0.17860   0.86773   0.34007  -0.56567
O          O       0.39966   0.89296   0.43349  -0.54118
O          O       0.32021   0.36520   0.15745  -0.56589
O          O       0.09936   0.39120   0.06431  -0.54320
O          O       0.05226   0.03657   0.62975  -0.59869
O          O       0.22938   0.07359   0.60246  -0.56785
O          O       0.44961   0.53878   0.87128  -0.59805
O          O       0.26995   0.57211   0.89601  -0.56898
O          O       0.94774   0.96343   0.37025  -0.59877
O          O       0.77062   0.92641   0.39753  -0.56794
O          O       0.55039   0.46122   0.12872  -0.59813
O          O       0.73005   0.42789   0.10399  -0.56887
O          O       0.82140   0.13227   0.65993  -0.56560
O          O       0.60034   0.10704   0.56651  -0.54107
O          O       0.67979   0.63479   0.84254  -0.56594
O          O       0.90064   0.60879   0.93568  -0.54318

