data_crystal

_audit_creation_method 'AiiDA-DDEC plugin'

_cell_length_a         8.66598
_cell_length_b        14.36848
_cell_length_c        19.77169

_cell_angle_alpha     89.94094
_cell_angle_beta     99.37292
_cell_angle_gamma     89.97949

_symmetry_space_group_name_Hall 'P 1'
_symmetry_space_group_name_H-M  'P 1'

loop_
_symmetry_equiv_pos_as_xyz
 'x,y,z'

loop_
_atom_site_label
_atom_site_type_symbol
_atom_site_fract_x
_atom_site_fract_y
_atom_site_fract_z
_atom_site_charge
Cu         Cu      0.12518   0.14280   0.30255   0.32740
Cu         Cu      0.21093   0.36413   0.21047   0.53781
Cu         Cu      0.24197   0.26500   0.48107   0.28339
Cu         Cu      0.87539   0.64350   0.19796   0.32760
Cu         Cu      0.78908   0.86348   0.28957   0.53786
Cu         Cu      0.75780   0.76511   0.01857   0.28469
Cu         Cu      0.87481   0.85720   0.69745   0.32727
Cu         Cu      0.78906   0.63586   0.78952   0.53772
Cu         Cu      0.75802   0.73500   0.51893   0.28333
Cu         Cu      0.12460   0.35650   0.80204   0.32754
Cu         Cu      0.21092   0.13652   0.71043   0.53789
Cu         Cu      0.24220   0.23489   0.98143   0.28471
H          H       0.06144  -0.00016   0.19349   0.09372
H          H       0.17172   0.95474   0.08892   0.13211
H          H       0.56310   0.13623   0.15782   0.13979
H          H       0.43950   0.17285   0.26078   0.09113
H          H       0.93913   0.49937   0.30671   0.09358
H          H       0.82824   0.45418   0.41115   0.13114
H          H       0.43698   0.63596   0.34167   0.13902
H          H       0.56122   0.67264   0.23891   0.09266
H          H       0.93855   0.00015   0.80651   0.09353
H          H       0.82827   0.04526   0.91108   0.13199
H          H       0.43689   0.86376   0.84218   0.13992
H          H       0.56049   0.82715   0.73922   0.09129
H          H       0.06087   0.50063   0.69329   0.09366
H          H       0.17175   0.54582   0.58885   0.13121
H          H       0.56301   0.36404   0.65833   0.13892
H          H       0.43877   0.32736   0.76109   0.09255
W          W       0.23254   0.31629   0.34953   0.77576
W          W       0.76779   0.81631   0.15030   0.77598
W          W       0.76745   0.68371   0.65047   0.77602
W          W       0.23220   0.18369   0.84970   0.77605
C          C       0.97689   0.04824   0.30996  -0.03964
C          C       0.25099   0.28038   0.07062  -0.02103
C          C       0.17229   0.02814   0.18384   0.09811
C          C       0.23397   0.00309   0.12596  -0.13291
C          C       0.37602   0.04262   0.11557   0.05649
C          C       0.45285   0.10432   0.16456  -0.12439
C          C       0.38441   0.12485   0.22156   0.09666
C          C       0.44292   0.01964   0.05413   0.23369
C          C       0.02391   0.54927   0.19043  -0.03791
C          C       0.74932   0.77997   0.42965  -0.02093
C          C       0.82824   0.52777   0.31625   0.09657
C          C       0.76621   0.50269   0.37407  -0.13052
C          C       0.62414   0.54236   0.38432   0.05769
C          C       0.54743   0.60407   0.33517  -0.12073
C          C       0.61617   0.62463   0.27825   0.09098
C          C       0.55713   0.51950   0.44582   0.23310
C          C       0.02310   0.95175   0.69004  -0.03921
C          C       0.74900   0.71962   0.92938  -0.02127
C          C       0.82770   0.97185   0.81616   0.09810
C          C       0.76602   0.99691   0.87404  -0.13302
C          C       0.62397   0.95737   0.88442   0.05646
C          C       0.54714   0.89568   0.83544  -0.12423
C          C       0.61558   0.87515   0.77844   0.09672
C          C       0.55707   0.98036   0.94587   0.23355
C          C       0.97608   0.45073   0.80957  -0.03761
C          C       0.25067   0.22002   0.57035  -0.02082
C          C       0.17176   0.47223   0.68375   0.09660
C          C       0.23378   0.49731   0.62593  -0.13061
C          C       0.37585   0.45763   0.61567   0.05765
C          C       0.45256   0.39593   0.66483  -0.12073
C          C       0.38382   0.37537   0.72175   0.09109
C          C       0.44286   0.48049   0.55418   0.23309
S          S       0.02513   0.28757   0.26793  -0.37041
S          S       0.31930   0.17936   0.39577  -0.33562
S          S       0.41842   0.37645   0.29909  -0.38111
S          S       0.16000   0.40173   0.43216  -0.37290
S          S       0.97518   0.78785   0.23214  -0.36911
S          S       0.68163   0.67937   0.10426  -0.33527
S          S       0.58171   0.87612   0.20075  -0.38119
S          S       0.84034   0.90160   0.06748  -0.37340
S          S       0.97486   0.71243   0.73207  -0.37088
S          S       0.68069   0.82064   0.60423  -0.33558
S          S       0.58157   0.62354   0.70091  -0.38072
S          S       0.83999   0.59827   0.56784  -0.37292
S          S       0.02481   0.21215   0.76786  -0.36876
S          S       0.31836   0.32063   0.89573  -0.33577
S          S       0.41828   0.12388   0.79924  -0.38139
S          S       0.15965   0.09839   0.93252  -0.37313
N          N       0.24545   0.08875   0.23065  -0.17828
N          N       0.25202   0.30981   0.12607  -0.33299
N          N       0.90447   0.97895   0.30924  -0.31548
N          N       0.40008   0.93781   0.02282  -0.12568
N          N       0.54122   0.08242   0.03296  -0.13822
N          N       0.75531   0.58854   0.26938  -0.17523
N          N       0.74793   0.80898   0.37399  -0.33275
N          N       0.09597   0.47982   0.19115  -0.31764
N          N       0.60005   0.43774   0.47738  -0.12618
N          N       0.45869   0.58235   0.46681  -0.13758
N          N       0.75454   0.91125   0.76935  -0.17826
N          N       0.74798   0.69018   0.87393  -0.33270
N          N       0.09552   0.02105   0.69076  -0.31585
N          N       0.59991   0.06218   0.97718  -0.12596
N          N       0.45877   0.91758   0.96704  -0.13778
N          N       0.24468   0.41146   0.73062  -0.17516
N          N       0.25206   0.19102   0.62600  -0.33287
N          N       0.90402   0.52018   0.80885  -0.31785
N          N       0.39994   0.56225   0.52262  -0.12617
N          N       0.54130   0.41764   0.53319  -0.13746

