data_crystal

_audit_creation_method 'AiiDA-DDEC plugin'

_cell_length_a         9.55400
_cell_length_b         9.54252
_cell_length_c        26.49813

_cell_angle_alpha     96.76144
_cell_angle_beta     97.03087
_cell_angle_gamma     110.54320

_symmetry_space_group_name_Hall 'P 1'
_symmetry_space_group_name_H-M  'P 1'

loop_
_symmetry_equiv_pos_as_xyz
 'x,y,z'

loop_
_atom_site_label
_atom_site_type_symbol
_atom_site_fract_x
_atom_site_fract_y
_atom_site_fract_z
_atom_site_charge
Cu         Cu      0.58308   0.64547   0.21563   0.95066
Cu         Cu      0.51154   0.20703   0.23369   1.04230
Cu         Cu      0.43104   0.36848   0.78464   0.94861
Cu         Cu      0.97450   0.27770   0.76695   1.03965
Cu         Cu      0.11850   0.68082   0.28449   0.94750
Cu         Cu      0.02741   0.22386   0.26690   1.04079
Cu         Cu      0.39548   0.83406   0.71564   0.94610
Cu         Cu      0.95719   0.76294   0.73397   1.04486
P          P       0.88193   0.87778   0.27409   1.28760
P          P       0.84711   0.41258   0.23034   1.26821
P          P       0.60273   0.60829   0.72657   1.28710
P          P       0.18154   0.61840   0.76998   1.26801
P          P       0.35764   0.85266   0.22609   1.28926
P          P       0.36781   0.43098   0.26991   1.26650
P          P       0.62807   0.13321   0.77436   1.28864
P          P       0.16257   0.09761   0.73031   1.26862
H          H       0.69456   0.57310   0.29575   0.26427
H          H       0.11027   0.80504   0.17820   0.15489
H          H       0.19965   0.69668   0.14419   0.12255
H          H       0.90747   0.46702   0.14575   0.13192
H          H       0.88376   0.62332   0.18423   0.14842
H          H       0.12791   0.90274   0.37167   0.12537
H          H       0.18167   0.94565   0.46924   0.12569
H          H       0.07712   0.82161   0.54224   0.12639
H          H       0.14423   0.85168   0.63854   0.10808
H          H       0.27710   0.39743   0.70450   0.26627
H          H       0.62756   0.93244   0.82101   0.15686
H          H       0.55614   0.05635   0.85627   0.12289
H          H       0.32297   0.76674   0.85443   0.13101
H          H       0.43886   0.70191   0.81601   0.15018
H          H       0.52975   0.75620   0.62893   0.12414
H          H       0.47595   0.71275   0.53135   0.12627
H          H       0.28014   0.53551   0.45722   0.12768
H          H       0.21481   0.50757   0.36095   0.10810
H          H       0.14569   0.52657   0.20442   0.26540
H          H       0.68307   0.87713   0.32127   0.15471
H          H       0.80777   0.80532   0.35621   0.12267
H          H       0.51700   0.57152   0.35446   0.13115
H          H       0.45243   0.68836   0.31612   0.14891
H          H       0.50496   0.77923   0.12860   0.12637
H          H       0.46270   0.72639   0.03105   0.12608
H          H       0.28551   0.52998   0.95697   0.12662
H          H       0.25703   0.46414   0.86077   0.10752
H          H       0.32381   0.94469   0.79564   0.26532
H          H       0.55491   0.36096   0.67862   0.15473
H          H       0.44699   0.45072   0.64432   0.12137
H          H       0.21608   0.15926   0.64577   0.13227
H          H       0.37231   0.13470   0.68422   0.14813
H          H       0.65251   0.37833   0.87212   0.12602
H          H       0.69591   0.43255   0.96969   0.12549
H          H       0.57191   0.32743   0.04258   0.12591
H          H       0.60051   0.39340   0.13879   0.10947
C          C       0.74809   0.80298   0.31776  -0.32920
C          C       0.93018   0.53303   0.18472  -0.34823
C          C       0.16088   0.82520   0.39313   0.09797
C          C       0.19056   0.84693   0.44683  -0.18571
C          C       0.23631   0.74384   0.47155   0.09759
C          C       0.17882   0.80612   0.55952  -0.18443
C          C       0.21492   0.82326   0.61296   0.09505
C          C       0.48444   0.42949   0.68257  -0.32607
C          C       0.34874   0.74859   0.81547  -0.34801
C          C       0.43081   0.76745   0.60721   0.09811
C          C       0.39931   0.74369   0.55350  -0.18567
C          C       0.27170   0.76461   0.52848   0.09699
C          C       0.24734   0.62025   0.44022  -0.18500
C          C       0.21149   0.60351   0.38680   0.09665
C          C       0.17849   0.73425   0.18233  -0.32829
C          C       0.49864   0.59782   0.31551  -0.34629
C          C       0.51652   0.68044   0.10703   0.09455
C          C       0.49342   0.64951   0.05334  -0.18516
C          C       0.51471   0.52206   0.02852   0.09731
C          C       0.37022   0.49739   0.94012  -0.18462
C          C       0.35318   0.46119   0.88673   0.09532
C          C       0.55370  -0.00217   0.81771  -0.33021
C          C       0.28234   0.18141   0.68473  -0.34874
C          C       0.57508   0.41124   0.89344   0.09718
C          C       0.59709   0.44123   0.94713  -0.18485
C          C       0.49404   0.48680   0.97163   0.09731
C          C       0.55601   0.42892   0.05972  -0.18323
C          C       0.57241   0.46440   0.11311   0.09270
N          N       0.64042   0.64894   0.29393  -0.24670
N          N       0.17039   0.70490   0.36358  -0.21048
N          N       0.35505   0.34547   0.70630  -0.24736
N          N       0.33959   0.80588   0.63649  -0.20770
N          N       0.09439   0.60506   0.20621  -0.24543
N          N       0.55465   0.58890   0.13646  -0.20795
N          N       0.39959   0.89053   0.79380  -0.24618
N          N       0.45451   0.42024   0.86371  -0.20880
O          O       0.03242   0.85909   0.28817  -0.78770
O          O       0.32621   0.82087   0.28040  -0.75020
O          O       0.36879   0.01297   0.21464  -0.77682
O          O       0.88943   0.27082   0.21980  -0.75420
O          O       0.67243   0.36913   0.21716  -0.80586
O          O       0.91574   0.51210   0.28404  -0.77085
O          O       0.56919   0.74360   0.71180  -0.78989
O          O       0.54182   0.04681   0.71983  -0.74914
O          O       0.79958   0.15491   0.78554  -0.77632
O          O       0.05068   0.67134   0.78074  -0.75137
O          O       0.15254   0.45702   0.78308  -0.80498
O          O       0.22460   0.63245   0.71617  -0.77005
O          O       0.49297   0.81898   0.21178  -0.78793
O          O       0.79340   0.79294   0.21965  -0.74857
O          O       0.90420   0.04947   0.28577  -0.77687
O          O       0.41996   0.29929   0.28057  -0.75255
O          O       0.20672   0.40203   0.28295  -0.80546
O          O       0.38198   0.47488   0.21616  -0.77049
O          O       0.61029   0.28375   0.78948  -0.78636
O          O       0.56997   0.57625   0.78071  -0.74895
O          O       0.76349   0.61898   0.71642  -0.77880
O          O       0.02059   0.13961   0.71993  -0.75561
O          O       0.11897   0.92281   0.71702  -0.80563
O          O       0.26254   0.16559   0.78400  -0.77137

