data_crystal

_audit_creation_method 'AiiDA-DDEC plugin'

_cell_length_a         9.11868
_cell_length_b        16.12407
_cell_length_c        16.13136

_cell_angle_alpha     116.68125
_cell_angle_beta     100.79521
_cell_angle_gamma     100.79004

_symmetry_space_group_name_Hall 'P 1'
_symmetry_space_group_name_H-M  'P 1'

loop_
_symmetry_equiv_pos_as_xyz
 'x,y,z'

loop_
_atom_site_label
_atom_site_type_symbol
_atom_site_fract_x
_atom_site_fract_y
_atom_site_fract_z
_atom_site_charge
Cu         Cu      0.50000   0.50000   0.50000   0.62662
Cu         Cu      0.00000   0.00000   0.50000   0.62654
Cu         Cu     -0.00000   0.50000  -0.00000   0.62497
H          H       0.97985   0.86121   0.63221   0.09691
H          H       0.82860   0.85424   0.74683   0.09076
H          H       0.59802   0.03677   0.70071   0.10639
H          H       0.53385   0.26547   0.63758   0.12185
H          H       0.45968   0.40121   0.62224   0.09345
H          H       0.60211   0.33187   0.37572   0.09534
H          H       0.68587   0.19558   0.38343   0.12738
H          H       0.11799   0.77063   0.13855   0.09603
H          H       0.97443   0.89289   0.14584   0.09065
H          H       0.56148   0.66415   0.96335   0.10620
H          H       0.27009   0.37301   0.73545   0.12067
H          H       0.05980   0.22201   0.59991   0.09420
H          H       0.26979   0.04360   0.66791   0.09617
H          H       0.48994   0.18770   0.80394   0.12692
H          H       0.34699   0.36734   0.22827   0.09635
H          H       0.08152   0.25284   0.10683   0.09014
H          H       0.89844   0.29972   0.33637   0.10708
H          H       0.89640   0.36245   0.62749   0.12099
H          H       0.83799   0.37794   0.77870   0.09489
H          H       0.22625   0.62433   0.95671   0.09497
H          H       0.30195   0.61643   0.81256   0.12772
H          H       0.02014   0.13879   0.36780   0.09703
H          H       0.17139   0.14575   0.25318   0.09071
H          H       0.40197   0.96323   0.29929   0.10621
H          H       0.46614   0.73453   0.36243   0.12171
H          H       0.54031   0.59879   0.37777   0.09329
H          H       0.39788   0.66813   0.62428   0.09554
H          H       0.31412   0.80442   0.61657   0.12748
H          H       0.88200   0.22937   0.86146   0.09619
H          H       0.02556   0.10711   0.85416   0.09067
H          H       0.43851   0.33585   0.03665   0.10601
H          H       0.72990   0.62699   0.26455   0.12074
H          H       0.94019   0.77799   0.40009   0.09410
H          H       0.73020   0.95640   0.33209   0.09613
H          H       0.51005   0.81230   0.19606   0.12698
H          H       0.65300   0.63266   0.77174   0.09655
H          H       0.91847   0.74716   0.89317   0.09021
H          H       0.10155   0.70028   0.66363   0.10689
H          H       0.10360   0.63755   0.37251   0.12103
H          H       0.16200   0.62206   0.22130   0.09477
H          H       0.77374   0.37567   0.04329   0.09494
H          H       0.69805   0.38357   0.18744   0.12790
C          C       0.89485   0.90083   0.64857   0.05004
C          C       0.81042   0.89686   0.71137   0.02086
C          C       0.68413   0.99760   0.68732   0.01592
C          C       0.76954   0.00313   0.62484   0.12296
C          C       0.75047   0.06067   0.57786   0.21464
C          C       0.68527   0.15130   0.52632   0.23725
C          C       0.62059   0.22189   0.51317   0.07566
C          C       0.55044   0.27852   0.57892  -0.16309
C          C       0.50899   0.35359   0.57034   0.08739
C          C       0.58961   0.31517   0.43280   0.08982
C          C       0.63599   0.23982   0.43718  -0.16270
C          C       0.99362   0.74769   0.09913   0.05272
C          C       0.91352   0.81471   0.10319   0.01957
C          C       0.68657   0.68991   0.00249   0.01679
C          C       0.76620   0.62172   0.99690   0.12272
C          C       0.68992   0.51708   0.93937   0.21435
C          C       0.53429   0.37487   0.84868   0.23191
C          C       0.39907   0.29136   0.77816   0.07703
C          C       0.27294   0.30099   0.72206  -0.16341
C          C       0.15628   0.21736   0.64712   0.08735
C          C       0.27421   0.11754   0.68475   0.08833
C          C       0.39600   0.19722   0.75994  -0.16318
C          C       0.24604   0.35120   0.25177   0.05246
C          C       0.09897   0.28842   0.18505   0.02182
C          C      -0.00256   0.31283   0.31022   0.01481
C          C       0.14518   0.37530   0.37816   0.12427
C          C       0.17295   0.42243   0.48282   0.21287
C          C       0.15879   0.47379   0.62502   0.23450
C          C       0.10723   0.48681   0.70877   0.07449
C          C       0.97161   0.42109   0.69939  -0.16117
C          C       0.93898   0.42977   0.78314   0.08654
C          C       0.15675   0.56724   0.88275   0.09136
C          C       0.19852   0.56278   0.80294  -0.16498
C          C       0.10514   0.09917   0.35144   0.05003
C          C       0.18957   0.10314   0.28864   0.02092
C          C       0.31586   0.00240   0.31268   0.01613
C          C       0.23045   0.99687   0.37516   0.12278
C          C       0.24952   0.93933   0.42214   0.21458
C          C       0.31472   0.84870   0.47368   0.23712
C          C       0.37940   0.77811   0.48684   0.07557
C          C       0.44955   0.72148   0.42108  -0.16306
C          C       0.49100   0.64641   0.42966   0.08728
C          C       0.41038   0.68483   0.56721   0.08976
C          C       0.36400   0.76018   0.56282  -0.16242
C          C       0.00637   0.25231   0.90087   0.05263
C          C       0.08647   0.18529   0.89681   0.01967
C          C       0.31342   0.31009   0.99751   0.01666
C          C       0.23379   0.37828   0.00310   0.12266
C          C       0.31007   0.48292   0.06063   0.21443
C          C       0.46570   0.62513   0.15132   0.23188
C          C       0.60092   0.70864   0.22184   0.07719
C          C       0.72705   0.69901   0.27795  -0.16361
C          C       0.84371   0.78264   0.35288   0.08745
C          C       0.72578   0.88245   0.31526   0.08830
C          C       0.60399   0.80277   0.24007  -0.16317
C          C       0.75395   0.64879   0.74823   0.05269
C          C       0.90102   0.71158   0.81495   0.02183
C          C       0.00255   0.68717   0.68978   0.01473
C          C       0.85481   0.62470   0.62184   0.12397
C          C       0.82704   0.57757   0.51718   0.21294
C          C       0.84120   0.52621   0.37498   0.23408
C          C       0.89276   0.51318   0.29124   0.07481
C          C       0.02838   0.57890   0.30061  -0.16134
C          C       0.06101   0.57023   0.21687   0.08635
C          C       0.84324   0.43275   0.11725   0.09142
C          C       0.80147   0.43722   0.19706  -0.16501
N          N       0.87554   0.95409   0.60556  -0.26558
N          N       0.70466   0.94529   0.73120  -0.22650
N          N       0.83288   0.06116   0.51598  -0.21598
N          N       0.79233   0.11885   0.48213  -0.26986
N          N       0.65626   0.11728   0.58693  -0.40842
N          N       0.53042   0.37322   0.49952  -0.24661
N          N       0.92085   0.65133   0.04586  -0.26457
N          N       0.75963   0.78625   0.05486  -0.22737
N          N       0.77149   0.45452   0.93900  -0.21848
N          N       0.67324   0.36286   0.88114  -0.26587
N          N       0.53955   0.46967   0.88261  -0.40568
N          N       0.15748   0.12658   0.62710  -0.24653
N          N       0.27008   0.39437   0.34823  -0.26647
N          N       0.97376   0.26875   0.21385  -0.22814
N          N       0.31673   0.48468   0.54544  -0.21845
N          N       0.30964   0.51846   0.63703  -0.26677
N          N       0.06971   0.41297   0.53018  -0.40621
N          N       0.03108   0.50055   0.87380  -0.24653
N          N       0.12446   0.04591   0.39444  -0.26521
N          N       0.29533   0.05471   0.26880  -0.22693
N          N       0.16711   0.93884   0.48403  -0.21571
N          N       0.20766   0.88115   0.51788  -0.26939
N          N       0.34373   0.88272   0.41308  -0.40888
N          N       0.46957   0.62678   0.50048  -0.24667
N          N       0.07914   0.34867   0.95414  -0.26424
N          N       0.24037   0.21375   0.94514  -0.22739
N          N       0.22850   0.54548   0.06101  -0.21829
N          N       0.32675   0.63714   0.11886  -0.26587
N          N       0.46044   0.53033   0.11739  -0.40599
N          N       0.84251   0.87342   0.37290  -0.24663
N          N       0.72991   0.60563   0.65178  -0.26625
N          N       0.02623   0.73124   0.78615  -0.22831
N          N       0.68326   0.51532   0.45456  -0.21820
N          N       0.69035   0.48154   0.36297  -0.26653
N          N       0.93028   0.58703   0.46982  -0.40639
N          N       0.96891   0.49945   0.12620  -0.24653

