data_crystal

_audit_creation_method 'AiiDA-DDEC plugin'

_cell_length_a         8.42055
_cell_length_b        12.82357
_cell_length_c        20.93181

_cell_angle_alpha     73.68538
_cell_angle_beta     84.46681
_cell_angle_gamma     77.68131

_symmetry_space_group_name_Hall 'P 1'
_symmetry_space_group_name_H-M  'P 1'

loop_
_symmetry_equiv_pos_as_xyz
 'x,y,z'

loop_
_atom_site_label
_atom_site_type_symbol
_atom_site_fract_x
_atom_site_fract_y
_atom_site_fract_z
_atom_site_charge
Mg         Mg      0.40432   0.84869  -0.00019   1.55194
Mg         Mg      0.59568   0.15131   0.00019   1.55187
Mg         Mg      0.00000   0.00000   0.00000   1.64293
H          H       0.58858   0.05877   0.18387   0.10482
H          H       0.35162   0.73406   0.30959   0.11206
H          H       0.34300   0.79658   0.18642   0.10974
H          H       0.16456   0.69567   0.74071   0.10158
H          H       0.92711   0.54163   0.74801   0.10322
H          H       0.61960   0.98722   0.30567   0.11197
H          H       0.03235   0.78922   0.62813   0.10930
H          H       0.64495   0.80260   0.77713   0.11904
H          H       0.14927   0.14569   0.85721   0.10895
H          H       0.47223   0.74237   0.71090   0.11527
H          H       0.45024   0.40621   0.77913   0.11788
H          H       0.31730   0.71609   0.83128   0.12251
H          H       0.93237   0.98041   0.86212   0.11411
H          H       0.63539   0.52194   0.70988   0.11597
H          H       0.07825   0.55920   0.63609   0.10736
H          H       0.32226   0.25917   0.77762   0.09518
H          H       0.26210   0.67773   0.56732   0.12031
H          H       0.57175   0.56472   0.51090   0.11807
H          H       0.77640   0.95534   0.77513   0.09886
H          H       0.75631   0.42820   0.83156   0.11919
H          H       0.52737   0.89536   0.52900   0.11503
H          H       0.86005   0.72705   0.56190   0.12394
H          H       0.49033   0.97023   0.40732   0.10518
H          H       0.53931   0.63835   0.38915   0.10326
H          H       0.41142   0.94123   0.81613   0.10469
H          H       0.64838   0.26595   0.69042   0.11213
H          H       0.65701   0.20342   0.81358   0.11001
H          H       0.83545   0.30434   0.25930   0.10162
H          H       0.07289   0.45837   0.25200   0.10324
H          H       0.38040   0.01278   0.69434   0.11178
H          H       0.96766   0.21079   0.37187   0.10914
H          H       0.35505   0.19741   0.22287   0.11898
H          H       0.85074   0.85431   0.14279   0.10895
H          H       0.52777   0.25763   0.28911   0.11537
H          H       0.54976   0.59379   0.22087   0.11780
H          H       0.68271   0.28391   0.16872   0.12241
H          H       0.06764   0.01959   0.13788   0.11404
H          H       0.36462   0.47806   0.29013   0.11584
H          H       0.92175   0.44080   0.36391   0.10766
H          H       0.67774   0.74083   0.22238   0.09502
H          H       0.73790   0.32227   0.43268   0.12041
H          H       0.42825   0.43528   0.48911   0.11812
H          H       0.22360   0.04467   0.22487   0.09890
H          H       0.24370   0.57180   0.16844   0.11921
H          H       0.47264   0.10464   0.47100   0.11487
H          H       0.13996   0.27295   0.43811   0.12413
H          H       0.50968   0.02977   0.59268   0.10516
H          H       0.46070   0.36165   0.61085   0.10348
C          C       0.54019   0.98624   0.21148  -0.09181
C          C       0.46702   0.93098   0.17698  -0.04031
C          C       0.40735   0.80352   0.28211  -0.13944
C          C       0.39988   0.83953   0.21306  -0.08756
C          C       0.84526   0.21322   0.90253   0.62197
C          C       0.48941   0.85444   0.31675   0.07016
C          C       0.11398   0.75821   0.76704  -0.14427
C          C       0.95688   0.82223   0.75306   0.08108
C          C       0.24889   0.47498   0.71333   0.04679
C          C       0.97565   0.45475   0.77146  -0.14296
C          C       0.94195   0.28034   0.85005  -0.06177
C          C       0.22431   0.84837   0.91060   0.60336
C          C       0.85267   0.79846   0.70812   0.04808
C          C       0.46703   0.96622   0.10253   0.64741
C          C       0.13288   0.84619   0.85423  -0.06135
C          C       0.46018   0.61023   0.63447   0.17010
C          C       0.55434   0.94708   0.28018  -0.13559
C          C       0.90963   0.77901   0.64636  -0.11947
C          C       0.69199   0.78718   0.72969  -0.11376
C          C       0.13826   0.40835   0.75743   0.07679
C          C       0.10154   0.23257   0.83391  -0.08137
C          C       0.59502   0.75259   0.69273  -0.18449
C          C       0.40882   0.46480   0.73239  -0.11787
C          C       0.19958   0.76906   0.81768  -0.08644
C          C       0.98176   0.91614   0.83698  -0.08310
C          C       0.54960   0.72537   0.52797   0.16818
C          C       0.51321   0.53031   0.69364  -0.18512
C          C       0.20003   0.55103   0.65258  -0.11956
C          C       0.65650   0.72698   0.63293   0.16908
C          C       0.19834   0.29638   0.78893  -0.13679
C          C       0.30313   0.61802   0.61369  -0.19327
C          C       0.55238   0.65354   0.48792  -0.18051
C          C       0.89490   0.90299   0.78741  -0.13285
C          C       0.87955   0.39175   0.81815  -0.08949
C          C       0.51002   0.81030   0.38912   0.05086
C          C       0.53018   0.83969   0.49798  -0.18208
C          C       0.81353   0.74368   0.60911  -0.18913
C          C       0.51084   0.88112   0.42965  -0.12184
C          C       0.53227   0.69552   0.41966  -0.11827
C          C       0.45982   0.01376   0.78852  -0.09173
C          C       0.53298   0.06903   0.82303  -0.04025
C          C       0.59265   0.19648   0.71790  -0.13933
C          C       0.60013   0.16047   0.78695  -0.08764
C          C       0.15475   0.78679   0.09747   0.62212
C          C       0.51060   0.14556   0.68325   0.07033
C          C       0.88603   0.24179   0.23296  -0.14388
C          C       0.04313   0.17777   0.24694   0.08088
C          C       0.75112   0.52503   0.28667   0.04692
C          C       0.02436   0.54526   0.22854  -0.14297
C          C       0.05805   0.71966   0.14995  -0.06186
C          C       0.77570   0.15163   0.08940   0.60359
C          C       0.14734   0.20155   0.29189   0.04807
C          C       0.53297   0.03378   0.89747   0.64732
C          C       0.86713   0.15381   0.14578  -0.06144
C          C       0.53983   0.38978   0.36553   0.16706
C          C       0.44567   0.05292   0.71982  -0.13594
C          C       0.09037   0.22099   0.35364  -0.11938
C          C       0.30802   0.21282   0.27032  -0.11377
C          C       0.86175   0.59166   0.24257   0.07664
C          C       0.89847   0.76743   0.16609  -0.08151
C          C       0.40499   0.24741   0.30727  -0.18443
C          C       0.59118   0.53520   0.26761  -0.11791
C          C       0.80043   0.23094   0.18232  -0.08653
C          C       0.01824   0.08386   0.16303  -0.08324
C          C       0.45041   0.27463   0.47203   0.16512
C          C       0.48680   0.46969   0.30636  -0.18529
C          C       0.79997   0.44897   0.34742  -0.11952
C          C       0.34350   0.27302   0.36708   0.16603
C          C       0.80166   0.70362   0.21108  -0.13645
C          C       0.69687   0.38198   0.38631  -0.19317
C          C       0.44763   0.34646   0.51208  -0.18052
C          C       0.10511   0.09701   0.21259  -0.13269
C          C       0.12046   0.60825   0.18185  -0.08937
C          C       0.48998   0.18971   0.61088   0.05094
C          C       0.46983   0.16031   0.50202  -0.18211
C          C       0.18647   0.25633   0.39089  -0.18915
C          C       0.48917   0.11888   0.57036  -0.12188
C          C       0.46773   0.30448   0.58035  -0.11825
N          N       0.56250   0.68284   0.59798  -0.14065
N          N       0.43751   0.31716   0.40202  -0.13218
O          O       0.35420   0.77821   0.92687  -0.60449
O          O       0.17553   0.92352   0.94382  -0.83401
O          O       0.71432   0.25924   0.92681  -0.63987
O          O       0.90239   0.10743   0.92133  -0.79582
O          O       0.45367   0.06901   0.07321  -0.71162
O          O       0.48373   0.88883   0.07382  -0.73303
O          O       0.64580   0.22179   0.07314  -0.60460
O          O       0.82447   0.07648   0.05618  -0.83426
O          O       0.28569   0.74076   0.07319  -0.63999
O          O       0.09762   0.89257   0.07867  -0.79574
O          O       0.54634   0.93100   0.92679  -0.71166
O          O       0.51627   0.11117   0.92618  -0.73275

