data_crystal

_audit_creation_method 'AiiDA-DDEC plugin'

_cell_length_a        11.71605
_cell_length_b        11.71698
_cell_length_c        15.19947

_cell_angle_alpha     109.67680
_cell_angle_beta     109.70538
_cell_angle_gamma     96.95140

_symmetry_space_group_name_Hall 'P 1'
_symmetry_space_group_name_H-M  'P 1'

loop_
_symmetry_equiv_pos_as_xyz
 'x,y,z'

loop_
_atom_site_label
_atom_site_type_symbol
_atom_site_fract_x
_atom_site_fract_y
_atom_site_fract_z
_atom_site_charge
Cd         Cd      0.26700   0.00204   0.28510   0.96888
Cd         Cd     -0.00206   0.73295   0.21491   0.96925
Cd         Cd      0.73299  -0.00203   0.71490   0.96884
Cd         Cd      0.00206   0.26705   0.78509   0.96927
H          H       0.99048   0.94554   0.18388   0.37619
H          H       0.97321   0.46985   0.68428   0.11115
H          H       0.11318   0.84652   0.92402   0.14513
H          H       0.10483   0.51361   0.98709   0.10606
H          H       0.31172   0.34758   0.88255   0.10704
H          H       0.44280   0.24311   0.63894   0.13422
H          H       0.04920   0.17600   0.58151   0.10769
H          H       0.05441   0.00928   0.31576   0.37527
H          H       0.53025   0.02685   0.81580   0.11084
H          H       0.15336   0.88677   0.57605   0.14500
H          H       0.48625   0.89513   0.51297   0.10601
H          H       0.65244   0.68833   0.61740   0.10710
H          H       0.75684   0.55702   0.86100   0.13398
H          H       0.82397   0.95055   0.91848   0.10738
H          H       0.00951   0.05446   0.81612   0.37600
H          H       0.02678   0.53016   0.31572   0.11102
H          H       0.88681   0.15348   0.07597   0.14511
H          H       0.89517   0.48639   0.01291   0.10619
H          H       0.68828   0.65243   0.11744   0.10712
H          H       0.55720   0.75689   0.36105   0.13425
H          H       0.95079   0.82400   0.41848   0.10756
H          H       0.94559   0.99072   0.68423   0.37528
H          H       0.46975   0.97315   0.18420   0.11106
H          H       0.84664   0.11324   0.42395   0.14482
H          H       0.51374   0.10488   0.48703   0.10609
H          H       0.34756   0.31168   0.38259   0.10702
H          H       0.24315   0.44298   0.13900   0.13428
H          H       0.17603   0.04945   0.08152   0.10730
C          C       0.01506   0.53464   0.76441   0.01392
C          C       0.03931   0.66467   0.79469   0.06316
C          C       0.09276   0.74472   0.89834  -0.11135
C          C       0.11584   0.68969   0.96919  -0.04923
C          C       0.08830   0.55889   0.93379   0.06442
C          C       0.16187   0.76589   0.08232   0.57569
C          C       0.29481   0.30816   0.80200   0.01240
C          C       0.39311   0.30191   0.76978   0.06423
C          C       0.36798   0.24966   0.66599  -0.11473
C          C       0.24208   0.20394   0.59603  -0.05526
C          C       0.14805   0.21173   0.63333   0.07028
C          C       0.20611   0.14345   0.48214   0.57121
C          C       0.46540   0.98497   0.73567   0.01405
C          C       0.33534   0.96072   0.70539   0.06295
C          C       0.25520   0.90714   0.60173  -0.11103
C          C       0.31019   0.88399   0.53086  -0.04916
C          C       0.44103   0.91160   0.56629   0.06526
C          C       0.23402   0.83785   0.41767   0.57429
C          C       0.69183   0.70514   0.69795   0.01255
C          C       0.69809   0.60682   0.73017   0.06426
C          C       0.75032   0.63188   0.83397  -0.11523
C          C       0.79600   0.75774   0.90394  -0.05500
C          C       0.78822   0.85176   0.86661   0.07006
C          C       0.85651   0.79397   0.01790   0.57181
C          C       0.98493   0.46536   0.23559   0.01382
C          C       0.96069   0.33534   0.20530   0.06310
C          C       0.90723   0.25529   0.10166  -0.11146
C          C       0.88415   0.31031   0.03080  -0.04938
C          C       0.91169   0.44112   0.06621   0.06466
C          C       0.83812   0.23411   0.91767   0.57586
C          C       0.70518   0.69184   0.19800   0.01250
C          C       0.60689   0.69810   0.23021   0.06416
C          C       0.63202   0.75035   0.33400  -0.11452
C          C       0.75792   0.79606   0.40397  -0.05546
C          C       0.85194   0.78827   0.36667   0.07016
C          C       0.79388   0.85656   0.51785   0.57141
C          C       0.53460   0.01504   0.26433   0.01409
C          C       0.66466   0.03928   0.29461   0.06298
C          C       0.74480   0.09287   0.39826  -0.11114
C          C       0.68980   0.11601   0.46913  -0.04885
C          C       0.55896   0.08840   0.43371   0.06502
C          C       0.76598   0.16216   0.58233   0.57423
C          C       0.30816   0.29486   0.30204   0.01237
C          C       0.30191   0.39318   0.26983   0.06421
C          C       0.24968   0.36813   0.16603  -0.11528
C          C       0.20400   0.24226   0.09606  -0.05488
C          C       0.21178   0.14824   0.13338   0.07021
C          C       0.14348   0.20603   0.98210   0.57168
Br         Br      0.99332   0.72996   0.69144  -0.03077
Br         Br      0.56351   0.36320   0.87077  -0.03712
Br         Br      0.27010   0.00676   0.80865  -0.03073
Br         Br      0.63678   0.43650   0.62917  -0.03670
Br         Br      0.00668   0.27004   0.30856  -0.03091
Br         Br      0.43648   0.63680   0.12923  -0.03691
Br         Br      0.72990   0.99324   0.19134  -0.03068
Br         Br      0.36321   0.56350   0.37083  -0.03669
N          N       0.04116   0.48360   0.83380  -0.21321
N          N       0.17408   0.26325   0.73389  -0.23325
N          N       0.51641   0.95888   0.66627  -0.21355
N          N       0.73675   0.82583   0.76606  -0.23284
N          N       0.95884   0.51640   0.16619  -0.21299
N          N       0.82592   0.73676   0.26610  -0.23327
N          N       0.48358   0.04112   0.33372  -0.21348
N          N       0.26325   0.17417   0.23394  -0.23306
O          O       0.21864   0.88159   0.11561  -0.55890
O          O       0.13895   0.70826   0.13388  -0.58244
O          O       0.08877   0.10055   0.42624  -0.53709
O          O       0.29584   0.13961   0.45259  -0.57204
O          O       0.11845   0.78054   0.38433  -0.55832
O          O       0.29149   0.86101   0.36610  -0.58163
O          O       0.89914   0.91134   0.07357  -0.53704
O          O       0.86061   0.70450   0.04774  -0.57206
O          O       0.78135   0.11841   0.88438  -0.55904
O          O       0.86104   0.29174   0.86612  -0.58226
O          O       0.91122   0.89945   0.57376  -0.53740
O          O       0.70415   0.86040   0.54741  -0.57202
O          O       0.88154   0.21946   0.61567  -0.55838
O          O       0.70850   0.13899   0.63390  -0.58161
O          O       0.10085   0.08866   0.92642  -0.53712
O          O       0.13938   0.29551   0.95226  -0.57190
O          O       0.05436   0.94538   0.24983  -0.79309
O          O       0.94563   0.05462   0.75017  -0.79297

