data_crystal

_audit_creation_method 'AiiDA-DDEC plugin'

_cell_length_a        11.74615
_cell_length_b        13.46135
_cell_length_c        15.74472

_cell_angle_alpha     113.93704
_cell_angle_beta     99.04007
_cell_angle_gamma     102.19968

_symmetry_space_group_name_Hall 'P 1'
_symmetry_space_group_name_H-M  'P 1'

loop_
_symmetry_equiv_pos_as_xyz
 'x,y,z'

loop_
_atom_site_label
_atom_site_type_symbol
_atom_site_fract_x
_atom_site_fract_y
_atom_site_fract_z
_atom_site_charge
Zn         Zn      0.35171   0.34578   0.65463   1.02024
Zn         Zn      0.47831   0.80625   0.30834   0.81817
Zn         Zn      0.09198   0.43600   0.69154   0.85957
Zn         Zn      0.64829   0.65421   0.34537   1.02008
Zn         Zn      0.52168   0.19375   0.69166   0.81823
Zn         Zn      0.90801   0.56399   0.30846   0.85955
H          H       0.11836   0.00569   0.37702   0.14193
H          H       0.89840   0.83673   0.29391   0.15412
H          H       0.53462   0.65255   0.94986   0.15584
H          H       0.65420   0.74107   0.14342   0.15501
H          H       0.18022   0.73136   0.64034   0.14927
H          H       0.26370   0.82150   0.52460   0.15462
H          H       0.99603   0.45448   0.41681   0.08680
H          H       0.16682   0.37750   0.44328   0.12798
H          H       0.12449   0.54626   0.21985   0.10852
H          H       0.29974   0.47210   0.23810   0.12484
H          H       0.35762   0.35304   0.41642   0.11886
H          H       0.43832   0.44834   0.38076   0.13329
H          H       0.35107   0.30102   0.20548   0.08793
H          H       0.44849   0.26512   0.27684   0.08957
H          H       0.18889   0.17903   0.27161   0.11027
H          H       0.21254   0.12517   0.15572   0.10017
H          H       0.31843   0.98446   0.10482   0.12632
H          H       0.31481   0.14550   0.40386   0.13802
H          H       0.40303   0.00293   0.42759   0.11646
H          H       0.40372   0.84552   0.13981   0.10500
H          H       0.88164   0.99431   0.62298   0.14199
H          H       0.10159   0.16327   0.70609   0.15402
H          H       0.46537   0.34744   0.05014   0.15593
H          H       0.34579   0.25892   0.85658   0.15504
H          H       0.81978   0.26863   0.35966   0.14921
H          H       0.73629   0.17850   0.47540   0.15474
H          H       0.00396   0.54551   0.58319   0.08664
H          H       0.83318   0.62250   0.55672   0.12790
H          H       0.87551   0.45373   0.78015   0.10868
H          H       0.70026   0.52789   0.76190   0.12491
H          H       0.64238   0.64696   0.58358   0.11873
H          H       0.56168   0.55165   0.61924   0.13340
H          H       0.64893   0.69898   0.79452   0.08808
H          H       0.55151   0.73488   0.72316   0.08961
H          H       0.81110   0.82097   0.72839   0.11016
H          H       0.78746   0.87482   0.84428   0.10022
H          H       0.68157   0.01553   0.89518   0.12640
H          H       0.68518   0.85449   0.59614   0.13801
H          H       0.59697   0.99706   0.57241   0.11637
H          H       0.59627   0.15447   0.86019   0.10496
C          C       0.09244   0.22217   0.52500   0.56369
C          C       0.01151   0.10736   0.45534   0.06147
C          C       0.03165   0.01160   0.39008  -0.16811
C          C       0.91859   0.92445   0.34728  -0.16832
C          C       0.83620   0.97125   0.39005   0.07493
C          C       0.70837   0.92514   0.38326   0.52376
C          C       0.56178   0.42209   0.83749   0.54691
C          C       0.61258   0.51465   0.93696   0.06706
C          C       0.59119   0.61768   0.98392  -0.17561
C          C       0.65217   0.66308   0.08309  -0.17134
C          C       0.70860   0.58562   0.09057   0.08123
C          C       0.78404   0.58500   0.17369   0.53916
C          C       0.29233   0.55433   0.64326   0.54948
C          C       0.30927   0.63540   0.60245   0.05038
C          C       0.24799   0.71240   0.60218  -0.17639
C          C       0.28990   0.75815   0.54223  -0.15897
C          C       0.37531   0.70722   0.51013   0.06481
C          C       0.44733   0.72250   0.44570   0.54547
C          C       0.06581   0.45716   0.37903   0.08947
C          C       0.16027   0.41321   0.39242  -0.19190
C          C       0.24842   0.41806   0.34242   0.18663
C          C       0.13702   0.50813   0.26844   0.09237
C          C       0.23371   0.46586   0.27849  -0.18677
C          C       0.35554   0.37665   0.35724  -0.22905
C          C       0.35897   0.27725   0.26466  -0.12533
C          C       0.25843   0.16280   0.23299  -0.21086
C          C       0.30898   0.07742   0.25150   0.17298
C          C       0.33623   0.99186   0.17744  -0.20082
C          C       0.33401   0.08140   0.34318  -0.18530
C          C       0.38390   0.00251   0.35744   0.10338
C          C       0.38470   0.91489   0.19614   0.08527
C          C       0.90756   0.77782   0.47501   0.56378
C          C       0.98848   0.89263   0.54466   0.06158
C          C       0.96835   0.98839   0.60992  -0.16804
C          C       0.08141   0.07554   0.65272  -0.16825
C          C       0.16380   0.02875   0.60995   0.07479
C          C       0.29163   0.07485   0.61674   0.52378
C          C       0.43821   0.57790   0.16251   0.54685
C          C       0.38742   0.48535   0.06304   0.06717
C          C       0.40881   0.38231   0.01608  -0.17557
C          C       0.34782   0.33691   0.91691  -0.17119
C          C       0.29140   0.41438   0.90944   0.08119
C          C       0.21596   0.41500   0.82631   0.53929
C          C       0.70766   0.44567   0.35674   0.54950
C          C       0.69073   0.36459   0.39755   0.05042
C          C       0.75201   0.28759   0.39782  -0.17644
C          C       0.71010   0.24184   0.45777  -0.15891
C          C       0.62469   0.29277   0.48987   0.06485
C          C       0.55267   0.27749   0.55430   0.54531
C          C       0.93419   0.54284   0.62097   0.08956
C          C       0.83973   0.58679   0.60758  -0.19218
C          C       0.75157   0.58194   0.65758   0.18661
C          C       0.86298   0.49187   0.73156   0.09240
C          C       0.76629   0.53413   0.72151  -0.18669
C          C       0.64446   0.62334   0.64276  -0.22895
C          C       0.64103   0.72274   0.73534  -0.12531
C          C       0.74156   0.83720   0.76702  -0.21101
C          C       0.69101   0.92257   0.74850   0.17324
C          C       0.66377   0.00814   0.82256  -0.20087
C          C       0.66598   0.91860   0.65682  -0.18546
C          C       0.61610   0.99748   0.64256   0.10340
C          C       0.61530   0.08510   0.80386   0.08545
N          N       0.05379   0.50468   0.31851  -0.23754
N          N       0.40872   0.92016   0.28491  -0.22933
N          N       0.94620   0.49531   0.68149  -0.23752
N          N       0.59128   0.07984   0.71509  -0.22952
O          O       0.20544   0.23519   0.53718  -0.54807
O          O       0.04007   0.29624   0.56478  -0.55070
O          O       0.89201   0.08375   0.45537  -0.08616
O          O       0.65291   0.81973   0.31565  -0.58578
O          O       0.65630   0.98486   0.43710  -0.50596
O          O       0.59351   0.33191   0.81903  -0.52967
O          O       0.49107   0.44130   0.78002  -0.55967
O          O       0.68624   0.49515   0.00143  -0.08827
O          O       0.77625   0.64614   0.25887  -0.57890
O          O       0.85864   0.52750   0.16253  -0.50239
O          O       0.21183   0.56228   0.69016  -0.56318
O          O       0.35381   0.48513   0.62803  -0.52478
O          O       0.38870   0.63214   0.54665  -0.08045
O          O       0.53580   0.68268   0.43758  -0.53758
O          O       0.41061   0.77884   0.40388  -0.52423
O          O       0.79455   0.76480   0.46282  -0.54804
O          O       0.95993   0.70375   0.43522  -0.55078
O          O       0.10798   0.91624   0.54464  -0.08612
O          O       0.34708   0.18027   0.68435  -0.58584
O          O       0.34369   0.01513   0.56290  -0.50598
O          O       0.40649   0.66809   0.18097  -0.52972
O          O       0.50893   0.55869   0.21998  -0.55948
O          O       0.31376   0.50485  -0.00143  -0.08844
O          O       0.22375   0.35385   0.74113  -0.57891
O          O       0.14135   0.47249   0.83747  -0.50247
O          O       0.78817   0.43772   0.30984  -0.56325
O          O       0.64619   0.51486   0.37197  -0.52471
O          O       0.61130   0.36786   0.45335  -0.08049
O          O       0.46420   0.31731   0.56242  -0.53757
O          O       0.58939   0.22115   0.59612  -0.52411

