data_crystal

_audit_creation_method 'AiiDA-DDEC plugin'

_cell_length_a        11.23350
_cell_length_b        13.83531
_cell_length_c        14.80281

_cell_angle_alpha     75.46730
_cell_angle_beta     67.77268
_cell_angle_gamma     66.14732

_symmetry_space_group_name_Hall 'P 1'
_symmetry_space_group_name_H-M  'P 1'

loop_
_symmetry_equiv_pos_as_xyz
 'x,y,z'

loop_
_atom_site_label
_atom_site_type_symbol
_atom_site_fract_x
_atom_site_fract_y
_atom_site_fract_z
_atom_site_charge
Cd         Cd      0.97522   0.03331   0.62347   1.05726
Cd         Cd      0.63319   0.46701   0.87657   1.05852
Cd         Cd      0.02477   0.96669   0.37654   1.05750
Cd         Cd      0.36679   0.53300   0.12344   1.05854
Cd         Cd      0.70560   0.25001   0.75019   1.18719
Cd         Cd      0.29439   0.75000   0.24981   1.18706
H          H       0.44020   0.05020   0.91534   0.12457
H          H       0.34363   0.90958   0.01913   0.11373
H          H       0.68908   0.67305   0.84809   0.11535
H          H       0.78435   0.81336   0.74773   0.12288
H          H       0.14540   0.86089   0.88679   0.12141
H          H       0.85793   0.17611   0.93753   0.12065
H          H       0.40623   0.44976   0.58418   0.12827
H          H       0.27291   0.59054   0.48062   0.11239
H          H       0.21085   0.82653   0.65259   0.11643
H          H       0.34663   0.68604   0.75252   0.12308
H          H       0.89317   0.63898   0.61348   0.12179
H          H       0.97197   0.32361   0.56243   0.12164
H          H       0.55978   0.94980   0.08467   0.12439
H          H       0.65636   0.09042   0.98087   0.11359
H          H       0.31091   0.32696   0.15191   0.11559
H          H       0.21564   0.18664   0.25227   0.12316
H          H       0.85458   0.13911   0.11322   0.12165
H          H       0.14206   0.82390   0.06247   0.12015
H          H       0.59376   0.55025   0.41582   0.12846
H          H       0.72707   0.40947   0.51939   0.11232
H          H       0.78914   0.17347   0.34742   0.11629
H          H       0.65335   0.31397   0.24748   0.12322
H          H       0.10682   0.36102   0.38653   0.12159
H          H       0.02801   0.67640   0.43757   0.12168
C          C       0.68301   0.02154   0.76623   0.59586
C          C       0.61804   0.93995   0.82560  -0.01909
C          C       0.49304   0.96745   0.90154  -0.09320
C          C       0.43941   0.88912   0.95923  -0.08361
C          C       0.50980   0.78234   0.94061  -0.04584
C          C       0.63388   0.75513   0.86348  -0.09461
C          C       0.68753   0.83343   0.80673  -0.09450
C          C       0.45362   0.69893   0.00239   0.60164
C          C      -0.00050   0.04151   0.79853   0.57864
C          C       0.00244   0.02087   0.90170  -0.02535
C          C       0.08242   0.92114   0.93690  -0.09419
C          C       0.92030   0.09963   0.96542  -0.09687
C          C       0.47178   0.47799   0.73328   0.59695
C          C       0.38441   0.55973   0.67423  -0.02194
C          C       0.36255   0.53242   0.59823  -0.09696
C          C       0.28838   0.61085   0.54065  -0.08142
C          C       0.23352   0.71756   0.55951  -0.04491
C          C       0.25327   0.74456   0.63688  -0.09533
C          C       0.32858   0.66616   0.69346  -0.09370
C          C       0.15611   0.80088   0.49752   0.60187
C          C       0.84117   0.45751   0.70157   0.57881
C          C       0.92569   0.47879   0.59832  -0.02453
C          C       0.94058   0.57881   0.56326  -0.09399
C          C       0.98572   0.40016   0.53447  -0.09854
C          C       0.31697   0.97846   0.23377   0.59563
C          C       0.38194   0.06006   0.17440  -0.01914
C          C       0.50695   0.03256   0.09847  -0.09319
C          C       0.56057   0.11088   0.04077  -0.08390
C          C       0.49019   0.21767   0.05940  -0.04599
C          C       0.36610   0.24488   0.13653  -0.09451
C          C       0.31245   0.16658   0.19328  -0.09431
C          C       0.54636   0.30107   0.99761   0.60183
C          C       0.00049   0.95850   0.20147   0.57853
C          C      -0.00245   0.97913   0.09830  -0.02545
C          C       0.91756   0.07887   0.06311  -0.09392
C          C       0.07969   0.90037   0.03458  -0.09617
C          C       0.52820   0.52201   0.26673   0.59678
C          C       0.61558   0.44027   0.32577  -0.02173
C          C       0.63743   0.46758   0.40177  -0.09711
C          C       0.71161   0.38915   0.45936  -0.08139
C          C       0.76647   0.28245   0.44049  -0.04474
C          C       0.74672   0.25545   0.36312  -0.09535
C          C       0.67140   0.33384   0.30655  -0.09398
C          C       0.84388   0.19913   0.50248   0.60198
C          C       0.15882   0.54250   0.29843   0.57900
C          C       0.07430   0.52121   0.40168  -0.02461
C          C       0.05941   0.42119   0.43675  -0.09413
C          C       0.01426   0.59984   0.46554  -0.09863
O          O       0.62916   0.11355   0.79569  -0.58031
O          O       0.78752   0.99036   0.69207  -0.58455
O          O       0.35333   0.71916   0.08199  -0.59649
O          O       0.50238   0.60446   0.97697  -0.58391
O          O       0.91842   0.12891   0.76897  -0.60453
O          O       0.07769   0.96846   0.74131  -0.54945
O          O       0.53812   0.38573   0.70421  -0.58032
O          O       0.47254   0.50942   0.80680  -0.58606
O          O       0.15636   0.78047   0.41769  -0.59633
O          O       0.08475   0.89535   0.52292  -0.58423
O          O       0.81745   0.37025   0.73061  -0.60411
O          O       0.79046   0.52995   0.75931  -0.55001
O          O       0.37082   0.88646   0.20432  -0.58064
O          O       0.21247   0.00964   0.30793  -0.58422
O          O       0.64665   0.28084   0.91801  -0.59708
O          O       0.49760   0.39555   0.02303  -0.58369
O          O       0.08157   0.87110   0.23103  -0.60470
O          O       0.92230   0.03154   0.25870  -0.54902
O          O       0.46186   0.61427   0.29579  -0.58010
O          O       0.52745   0.49058   0.19320  -0.58624
O          O       0.84362   0.21953   0.58231  -0.59639
O          O       0.91524   0.10465   0.47708  -0.58445
O          O       0.18254   0.62975   0.26940  -0.60405
O          O       0.20953   0.47006   0.24069  -0.55017

