data_crystal

_audit_creation_method 'AiiDA-DDEC plugin'

_cell_length_a         8.44169
_cell_length_b        10.56167
_cell_length_c        17.70923

_cell_angle_alpha     99.53176
_cell_angle_beta     97.34322
_cell_angle_gamma     99.55807

_symmetry_space_group_name_Hall 'P 1'
_symmetry_space_group_name_H-M  'P 1'

loop_
_symmetry_equiv_pos_as_xyz
 'x,y,z'

loop_
_atom_site_label
_atom_site_type_symbol
_atom_site_fract_x
_atom_site_fract_y
_atom_site_fract_z
_atom_site_charge
Sm         Sm      0.52661   0.14368   0.29974   1.98003
Sm         Sm      0.03151   0.19464   0.23644   2.02955
Sm         Sm      0.47707   0.85754   0.69855   1.98380
Sm         Sm      0.96927   0.80842   0.76156   2.03196
H          H       0.20134   0.67781   0.27003   0.13756
H          H       0.04242   0.90980   0.10698   0.11453
H          H       0.87242   0.70885   0.02193   0.11287
H          H       0.86068   0.49367   0.06410   0.11331
H          H       0.08616   0.85881   0.35650   0.11303
H          H       0.14719   0.70400   0.44349   0.12795
H          H       0.97900   0.67105   0.54781   0.11259
H          H       0.68746   0.93929   0.47357   0.14036
H          H       0.37458   0.87415   0.11254   0.10833
H          H       0.21614   0.72577   0.99223   0.11239
H          H       0.35147   0.67643   0.87711   0.13040
H          H       0.79367   0.93495  -0.00061   0.13100
H          H       0.87356   0.46783   0.34947   0.04795
H          H       0.79110   0.32168   0.73244   0.13805
H          H       0.96189   0.08948   0.89256   0.11489
H          H       0.13045   0.29076   0.97772   0.11359
H          H       0.13857   0.50624   0.93618   0.11283
H          H       0.91868   0.14679   0.64292   0.11316
H          H       0.85502   0.29977   0.55470   0.12739
H          H       0.02118   0.32972   0.44908   0.11368
H          H       0.31353   0.06263   0.52368   0.14133
H          H       0.62904   0.12753   0.88786   0.10722
H          H       0.78569   0.27539   0.00874   0.11257
H          H       0.64875   0.32360   0.12332   0.13060
H          H       0.20808   0.06486  -0.00059   0.12924
H          H       0.12435   0.53772   0.64883   0.04725
C          C       0.02255   0.44532   0.19551   0.55118
C          C       0.02781   0.57327   0.17021  -0.03526
C          C       0.12715   0.68543   0.21663  -0.09176
C          C       0.13137   0.80683   0.19404  -0.04016
C          C       0.03807   0.81529   0.12417  -0.07551
C          C       0.94205   0.70259   0.07685  -0.08120
C          C       0.93602   0.58194   0.10004  -0.07610
C          C       0.24361   0.92365   0.24258   0.58393
C          C       0.84114  -0.00184   0.35569   0.63830
C          C       0.88107   0.90671   0.40856  -0.05262
C          C       0.01190   0.84141   0.40092  -0.04408
C          C       0.04643   0.75496   0.45020  -0.08381
C          C       0.95331   0.73637   0.50837  -0.07574
C          C       0.82493   0.80419   0.51782  -0.01914
C          C       0.78780   0.88801   0.46700  -0.07625
C          C       0.73376   0.79260   0.58409   0.62548
C          C       0.68261   0.00406   0.13625   0.65019
C          C       0.59427   0.91195   0.06408  -0.05494
C          C       0.43120   0.85270   0.06140  -0.03963
C          C       0.34359   0.76814   0.99435  -0.06978
C          C       0.41882   0.74074   0.92976  -0.06986
C          C       0.58176   0.79999   0.93174  -0.01321
C          C       0.66888   0.88729  -0.00126  -0.09255
C          C       0.66153   0.77287   0.86211   0.59939
C          C       0.78012   0.37743   0.33840   0.49796
C          C       0.97641   0.55400   0.80479   0.55027
C          C       0.96967   0.42634   0.83049  -0.04127
C          C       0.86894   0.31416   0.78478  -0.09035
C          C       0.86765   0.19254   0.80673  -0.04342
C          C       0.96422   0.18416   0.87579  -0.07656
C          C       0.05993   0.29703   0.92303  -0.08547
C          C       0.06377   0.41774   0.90015  -0.07192
C          C       0.75587   0.07474   0.75882   0.59536
C          C       0.16113   0.00563   0.64247   0.63190
C          C       0.12129   0.09672   0.58963  -0.05117
C          C       0.99092   0.16265   0.59756  -0.04264
C          C       0.95514   0.24809   0.54779  -0.08707
C          C       0.04682   0.26510   0.48898  -0.06714
C          C       0.17472   0.19667   0.47941  -0.01625
C          C       0.21311   0.11382   0.53053  -0.07997
C          C       0.26497   0.20715   0.41284   0.62252
C          C       0.32156   0.99579   0.86330   0.64752
C          C       0.40878   0.08823   0.93571  -0.05318
C          C       0.57164   0.14813   0.93882  -0.04159
C          C       0.65823   0.23267   0.00612  -0.06710
C          C       0.58208   0.25948   0.07047  -0.07098
C          C       0.41929   0.19980   0.06800  -0.01706
C          C       0.33302   0.11275   0.00069  -0.08918
C          C       0.33917   0.22660   0.13752   0.60528
C          C       0.21838   0.62798   0.66218   0.50876
O          O       0.11135   0.43782   0.25810  -0.56907
O          O       0.92813   0.34283   0.15474  -0.57076
O          O       0.35787   0.90860   0.29193  -0.52078
O          O       0.23009   0.03961   0.23119  -0.73279
O          O       0.83280   0.05045   0.13969  -0.62746
O          O       0.59892   0.03055   0.18964  -0.66223
O          O       0.81541   0.78769   0.87132  -0.56386
O          O       0.57135   0.73689   0.79558  -0.59540
O          O       0.71214   0.04395   0.36350  -0.64065
O          O       0.93566   0.02419   0.30764  -0.62563
O          O       0.60113   0.83480   0.58369  -0.58981
O          O       0.79429   0.74320   0.63991  -0.66149
O          O       0.80807   0.27450   0.29552  -0.70087
O          O       0.65126   0.37563   0.36723  -0.51796
O          O       0.88851   0.56251   0.74210  -0.55114
O          O       0.07127   0.65665   0.84498  -0.55029
O          O       0.63598   0.08770   0.71193  -0.55218
O          O       0.77676   0.95947   0.76878  -0.74944
O          O       0.17116   0.94924   0.85961  -0.62500
O          O       0.40589   0.96944   0.81033  -0.66209
O          O       0.18517   0.21173   0.12786  -0.57020
O          O       0.42872   0.26289   0.20417  -0.60647
O          O       0.29214   0.96183   0.63638  -0.62181
O          O       0.06493   0.97663   0.68931  -0.61628
O          O       0.39607   0.16266   0.41269  -0.58501
O          O       0.20466   0.25762   0.35756  -0.65605
O          O       0.18942   0.73029   0.70483  -0.70264
O          O       0.35018   0.63021   0.63571  -0.52617

