data_crystal

_audit_creation_method 'AiiDA-DDEC plugin'

_cell_length_a        17.45447
_cell_length_b        23.24470
_cell_length_c        23.24494

_cell_angle_alpha     102.36023
_cell_angle_beta     112.10255
_cell_angle_gamma     112.10279

_symmetry_space_group_name_Hall 'P 1'
_symmetry_space_group_name_H-M  'P 1'

loop_
_symmetry_equiv_pos_as_xyz
 'x,y,z'

loop_
_atom_site_label
_atom_site_type_symbol
_atom_site_fract_x
_atom_site_fract_y
_atom_site_fract_z
_atom_site_charge
Zn         Zn      0.54947   0.52582   0.97434   0.97446
Zn         Zn      0.54947   0.97434   0.52582   0.97445
Zn         Zn      0.45053   0.47418   0.02566   0.97443
Zn         Zn      0.45053   0.02566   0.47418   0.97446
H          H       0.17757   0.42536   0.66089   0.12468
H          H       0.16138   0.39093   0.86057   0.12146
H          H       0.32733   0.46735   0.76919   0.12172
H          H       0.01129   0.34992   0.75309   0.12675
H          H       0.93244   0.31503   0.50389   0.12768
H          H       0.93139   0.38216   0.43573   0.10646
H          H       0.59142   0.07438   0.83905   0.12430
H          H       0.40995   0.10909   0.63944   0.12150
H          H       0.59072   0.03263   0.73072   0.12115
H          H       0.40843   0.14983   0.74690   0.12653
H          H       0.61357   0.18502   0.99618   0.12793
H          H       0.61353   0.11785   0.06437   0.10899
H          H       0.40858   0.16095   0.92563   0.12424
H          H       0.59004   0.36056   0.89091   0.12161
H          H       0.40928   0.26928   0.96737   0.12104
H          H       0.59156   0.25310   0.85017   0.12661
H          H       0.38643   0.00381   0.81498   0.12783
H          H       0.38647   0.93563   0.88215   0.10888
H          H       0.82244   0.33911   0.57465   0.12465
H          H       0.83862   0.13942   0.60907   0.12154
H          H       0.67267   0.23081   0.53265   0.12160
H          H       0.98871   0.24691   0.65008   0.12684
H          H       0.06756   0.49611   0.68497   0.12771
H          H       0.06862   0.56427   0.61784   0.10649
H          H       0.82243   0.57465   0.33910   0.12448
H          H       0.83862   0.60908   0.13942   0.12175
H          H       0.67267   0.53265   0.23081   0.12147
H          H       0.98871   0.65008   0.24691   0.12698
H          H       0.06756   0.68498   0.49611   0.12785
H          H       0.06862   0.61784   0.56427   0.10645
H          H       0.40858   0.92563   0.16095   0.12444
H          H       0.59005   0.89092   0.36055   0.12139
H          H       0.40928   0.96737   0.26928   0.12118
H          H       0.59157   0.85017   0.25310   0.12649
H          H       0.38643   0.81498   0.00381   0.12775
H          H       0.38647   0.88215   0.93563   0.10906
H          H       0.59143   0.83905   0.07437   0.12445
H          H       0.40995   0.63945   0.10908   0.12138
H          H       0.59072   0.73072   0.03263   0.12124
H          H       0.40843   0.74690   0.14983   0.12642
H          H       0.61358   0.99619   0.18502   0.12779
H          H       0.61353   0.06437   0.11785   0.10896
H          H       0.17756   0.66090   0.42535   0.12446
H          H       0.16138   0.86058   0.39093   0.12175
H          H       0.32733   0.76919   0.46735   0.12154
H          H       0.01129   0.75309   0.34992   0.12688
H          H       0.93244   0.50389   0.31503   0.12780
H          H       0.93139   0.43573   0.38216   0.10643
C          C       0.34342   0.45619   0.88640   0.58899
C          C       0.17444   0.41830   0.70486  -0.19377
C          C       0.08463   0.38472   0.69977   0.18236
C          C       0.16424   0.39792   0.81651  -0.07865
C          C       0.25408   0.43161   0.82187  -0.06112
C          C       0.25797   0.44169   0.76532  -0.07780
C          C       0.08041   0.37504   0.75649  -0.19281
C          C       0.96171   0.36972   0.52843  -0.17666
C          C       0.96149   0.40836   0.49025  -0.12493
C          C       0.50130   0.04391   0.61375   0.58978
C          C       0.55134   0.08157   0.79518  -0.19280
C          C       0.50030   0.11521   0.80031   0.18111
C          C       0.44988   0.10198   0.68345  -0.07733
C          C       0.50069   0.06836   0.67812  -0.06310
C          C       0.55097   0.05827   0.73472  -0.07773
C          C       0.44902   0.12477   0.74347  -0.19221
C          C       0.56359   0.13031   0.97163  -0.17721
C          C       0.56291   0.09166   0.00981  -0.12746
C          C       0.49870   0.38625   0.95609   0.58969
C          C       0.44865   0.20481   0.91843  -0.19282
C          C       0.49969   0.19969   0.88479   0.18109
C          C       0.55012   0.31655   0.89801  -0.07724
C          C       0.49931   0.32188   0.93164  -0.06320
C          C       0.44903   0.26528   0.94173  -0.07767
C          C       0.55097   0.25653   0.87522  -0.19230
C          C       0.43641   0.02837   0.86969  -0.17689
C          C       0.43709   0.99019   0.90834  -0.12744
C          C       0.65658   0.11360   0.54382   0.58898
C          C       0.82557   0.29514   0.58170  -0.19380
C          C       0.91537   0.30023   0.61528   0.18239
C          C       0.83576   0.18349   0.60208  -0.07870
C          C       0.74592   0.17813   0.56839  -0.06098
C          C       0.74203   0.23468   0.55832  -0.07790
C          C       0.91960   0.24351   0.62496  -0.19281
C          C       0.03830   0.47157   0.63028  -0.17677
C          C       0.03851   0.50975   0.59164  -0.12483
C          C       0.65658   0.54382   0.11360   0.58904
C          C       0.82556   0.58170   0.29514  -0.19398
C          C       0.91537   0.61528   0.30023   0.18254
C          C       0.83576   0.60209   0.18349  -0.07849
C          C       0.74592   0.56839   0.17813  -0.06114
C          C       0.74203   0.55832   0.23468  -0.07775
C          C       0.91959   0.62497   0.24351  -0.19294
C          C       0.03830   0.63029   0.47157  -0.17659
C          C       0.03851   0.59164   0.50975  -0.12530
C          C       0.49870   0.95610   0.38625   0.58964
C          C       0.44866   0.91843   0.20481  -0.19258
C          C       0.49970   0.88480   0.19969   0.18112
C          C       0.55013   0.89802   0.31655  -0.07761
C          C       0.49931   0.93164   0.32188  -0.06292
C          C       0.44904   0.94173   0.26528  -0.07788
C          C       0.55098   0.87523   0.25653  -0.19216
C          C       0.43641   0.86970   0.02837  -0.17723
C          C       0.43709   0.90834   0.99018  -0.12732
C          C       0.50130   0.61375   0.04391   0.58970
C          C       0.55135   0.79519   0.08157  -0.19255
C          C       0.50031   0.80031   0.11520   0.18114
C          C       0.44988   0.68345   0.10198  -0.07754
C          C       0.50069   0.67812   0.06836  -0.06304
C          C       0.55097   0.73472   0.05827  -0.07785
C          C       0.44902   0.74347   0.12477  -0.19227
C          C       0.56359   0.97163   0.13030  -0.17704
C          C       0.56291   0.00981   0.09166  -0.12712
C          C       0.34342   0.88641   0.45618   0.58906
C          C       0.17443   0.70486   0.41830  -0.19395
C          C       0.08463   0.69977   0.38472   0.18250
C          C       0.16424   0.81652   0.39792  -0.07841
C          C       0.25408   0.82188   0.43161  -0.06123
C          C       0.25797   0.76532   0.44168  -0.07768
C          C       0.08041   0.75649   0.37503  -0.19300
C          C       0.96170   0.52844   0.36971  -0.17660
C          C       0.96149   0.49025   0.40836  -0.12525
C          C       0.00000   0.40093   0.59907   0.16738
C          C       0.00000   0.47954   0.52046   0.04893
C          C       0.50000   0.09904   0.90096   0.16795
C          C       0.50000   0.02046   0.97954   0.04877
C          C      -0.00000   0.59907   0.40093   0.16767
C          C       0.00000   0.52046   0.47954   0.04903
C          C       0.50000   0.90096   0.09904   0.16788
C          C       0.50000   0.97955   0.02045   0.04850
N          N       0.00000   0.36166   0.63834  -0.14085
N          N       0.50000   0.13833   0.86167  -0.14140
N          N      -0.00000   0.63835   0.36165  -0.14106
N          N       0.50000   0.86167   0.13833  -0.14145
O          O       0.42324   0.48885   0.88881  -0.55858
O          O       0.33420   0.44289   0.93503  -0.55976
O          O       0.54596   0.01122   0.61150  -0.55917
O          O       0.45717   0.05732   0.56507  -0.56016
O          O       0.45404   0.38851   0.98878  -0.55926
O          O       0.54283   0.43493   0.94268  -0.55996
O          O       0.57676   0.11119   0.51115  -0.55871
O          O       0.66580   0.06497   0.55711  -0.55964
O          O       0.57676   0.51115   0.11119  -0.55894
O          O       0.66580   0.55712   0.06497  -0.55948
O          O       0.45404   0.98879   0.38850  -0.55892
O          O       0.54283   0.94268   0.43493  -0.56031
O          O       0.54596   0.61150   0.01121  -0.55888
O          O       0.45717   0.56507   0.05732  -0.56031
O          O       0.42324   0.88882   0.48885  -0.55900
O          O       0.33420   0.93503   0.44288  -0.55939

