data_crystal

_audit_creation_method 'AiiDA-DDEC plugin'

_cell_length_a         8.64071
_cell_length_b        18.34249
_cell_length_c        18.17936

_cell_angle_alpha     117.51348
_cell_angle_beta     99.14854
_cell_angle_gamma     100.28334

_symmetry_space_group_name_Hall 'P 1'
_symmetry_space_group_name_H-M  'P 1'

loop_
_symmetry_equiv_pos_as_xyz
 'x,y,z'

loop_
_atom_site_label
_atom_site_type_symbol
_atom_site_fract_x
_atom_site_fract_y
_atom_site_fract_z
_atom_site_charge
Ag         Ag      0.63218   0.96022   0.46173   0.22978
Ag         Ag      0.17449   0.54069   0.49860   0.23209
Ag         Ag      0.67562   0.50358   0.04328   0.22649
Ag         Ag      0.36722   0.03970   0.53829   0.22919
Ag         Ag      0.82508   0.45922   0.50107   0.23144
Ag         Ag      0.32411   0.49638   0.95669   0.22635
H          H       0.90951   0.96950   0.60435   0.08439
H          H       0.15283   0.08229   0.72193   0.11268
H          H       0.23065   0.22947   0.73677   0.11544
H          H       0.82532   0.13425   0.51404   0.08280
H          H       0.09794   0.17260   0.47569   0.09366
H          H       0.01157   0.18425   0.34335   0.11024
H          H       0.90413   0.30608   0.35625   0.07704
H          H       0.96855   0.40404   0.62078   0.09886
H          H       0.28550   0.39679   0.35952   0.08087
H          H       0.40147   0.27871   0.35000   0.11058
H          H       0.47379   0.26486   0.48281   0.11661
H          H       0.32280   0.49063   0.62026   0.08157
H          H       0.61953   0.53098   0.69437   0.09126
H          H       0.66208   0.66102   0.83909   0.11033
H          H       0.53763   0.64325   0.94723   0.07835
H          H       0.35614   0.37853   0.78149   0.09568
H          H       0.92015   0.64338   0.03244   0.07995
H          H       0.03928   0.65175   0.91932   0.11038
H          H       0.98231   0.51619   0.77502   0.11456
H          H       0.71173   0.37949   0.87504   0.07898
H          H       0.93214   0.30633   0.83820   0.09315
H          H       0.83866   0.15789   0.81752   0.11245
H          H       0.60722   0.04758   0.69030   0.08005
H          H       0.56826   0.21899   0.60198   0.10445
H          H       0.09050   0.03050   0.39557   0.08475
H          H       0.84700   0.91775   0.27808   0.11261
H          H       0.76888   0.77067   0.26336   0.11525
H          H       0.17425   0.86588   0.48610   0.08254
H          H       0.90163   0.82732   0.52418   0.09333
H          H       0.98882   0.81589   0.65654   0.11002
H          H       0.09639   0.69408   0.64367   0.07715
H          H       0.02979   0.59555   0.37890   0.09848
H          H       0.71447   0.60310   0.64023   0.08129
H          H       0.59872   0.72131   0.64995   0.11059
H          H       0.52573   0.73511   0.51717   0.11625
H          H       0.67651   0.50932   0.37947   0.08149
H          H       0.38023   0.46907   0.30560   0.09119
H          H       0.33823   0.33891   0.16102   0.11080
H          H       0.46242   0.35675   0.05282   0.07848
H          H       0.64269   0.62157   0.21827   0.09574
H          H       0.07996   0.35643   0.96754   0.08010
H          H       0.96078   0.34793   0.08058   0.11057
H          H       0.01701   0.48346   0.22479   0.11460
H          H       0.28743   0.62044   0.12496   0.07901
H          H       0.06710   0.69357   0.16170   0.09363
H          H       0.16053   0.84205   0.18253   0.11232
H          H       0.39191   0.95230   0.30969   0.08024
H          H       0.43066   0.78089   0.39804   0.10466
C          C       0.94711   0.03314   0.61251   0.01308
C          C       0.08282   0.09653   0.67741  -0.14808
C          C       0.12756   0.17765   0.68552  -0.09923
C          C       0.03456   0.19223   0.62502  -0.02252
C          C       0.90194   0.12464   0.56041   0.03063
C          C       0.05876   0.27921   0.63610   0.30072
C          C       0.02872   0.28534   0.55775  -0.05132
C          C       0.04518   0.22291   0.47804  -0.12750
C          C      -0.00057   0.23050   0.40525  -0.13317
C          C       0.94229   0.29863   0.41159  -0.01282
C          C       0.97868   0.35479   0.56009   0.07126
C          C       0.31988   0.38937   0.41524   0.00356
C          C       0.38489   0.32391   0.41110  -0.14314
C          C       0.42622   0.31626   0.48403  -0.09771
C          C       0.40796   0.37863   0.56294  -0.04248
C          C       0.34494   0.44354   0.56205   0.03651
C          C       0.42811   0.36767   0.63875   0.29073
C          C       0.47199   0.44499   0.72406  -0.04775
C          C       0.56570   0.52631   0.74266  -0.10527
C          C       0.59030   0.59796   0.82309  -0.14435
C          C       0.52501   0.58882   0.88454   0.00198
C          C       0.42118   0.44008   0.79160   0.06625
C          C       0.90165   0.58652   0.97055  -0.00123
C          C       0.96740   0.59001   0.90674  -0.14142
C          C       0.93739   0.51574   0.82741  -0.09405
C          C       0.84554   0.43666   0.81481  -0.04332
C          C       0.78730   0.43814   0.88292   0.03105
C          C       0.78928   0.35883   0.72908   0.30888
C          C       0.75003   0.27419   0.72297  -0.03940
C          C       0.82983   0.25678   0.78448  -0.10108
C          C       0.77838   0.17442   0.77255  -0.14309
C          C       0.65083   0.11206   0.70141   0.01588
C          C       0.62888   0.20680   0.65042   0.05121
C          C       0.05258   0.96695   0.38757   0.01206
C          C       0.91684   0.90357   0.32270  -0.14757
C          C       0.87204   0.82246   0.31458  -0.09843
C          C       0.96517   0.80781   0.37498  -0.02250
C          C       0.09767   0.87543   0.43966   0.03043
C          C       0.94112   0.72074   0.36367   0.30184
C          C       0.97081   0.71455   0.44200  -0.05364
C          C       0.95445   0.77702   0.52176  -0.12634
C          C       0.00042   0.76950   0.59457  -0.13372
C          C       0.05756   0.70136   0.58828  -0.01210
C          C       0.02039   0.64499   0.43967   0.07229
C          C       0.67989   0.61051   0.58452   0.00242
C          C       0.61493   0.67602   0.58877  -0.14368
C          C       0.57331   0.68369   0.51587  -0.09556
C          C       0.59123   0.62129   0.43687  -0.04301
C          C       0.65442   0.55641   0.43770   0.03610
C          C       0.57101   0.63239   0.36114   0.29134
C          C       0.52732   0.55507   0.27579  -0.04738
C          C       0.43397   0.47370   0.25727  -0.10461
C          C       0.40958   0.40202   0.17691  -0.14453
C          C       0.47479   0.41120   0.11543   0.00187
C          C       0.57806   0.55999   0.20824   0.06428
C          C       0.09800   0.41331   0.02934  -0.00164
C          C       0.03234   0.40973   0.09314  -0.14106
C          C       0.06202   0.48400   0.17245  -0.09390
C          C       0.15370   0.56312   0.18507  -0.04404
C          C       0.21202   0.56171   0.11700   0.03072
C          C       0.21027   0.64099   0.27083   0.30912
C          C       0.24915   0.72566   0.27696  -0.04018
C          C       0.16933   0.74310   0.21548  -0.10081
C          C       0.22076   0.82549   0.22748  -0.14373
C          C       0.34827   0.88786   0.29865   0.01622
C          C       0.37014   0.79308   0.34957   0.05102
N          N       0.85540   0.04677   0.55359  -0.18707
N          N       0.93290   0.36138   0.48959  -0.19320
N          N       0.29989   0.44955   0.49103  -0.18256
N          N       0.44143   0.50992   0.86882  -0.18619
N          N       0.81110   0.51048   0.95871  -0.17847
N          N       0.57553   0.12791   0.64044  -0.19071
N          N       0.14409   0.95332   0.44654  -0.18646
N          N       0.06631   0.63846   0.51019  -0.19368
N          N       0.69973   0.55039   0.50869  -0.18084
N          N       0.55805   0.49011   0.13108  -0.18518
N          N       0.18837   0.48939   0.04118  -0.17802
N          N       0.42353   0.87200   0.35962  -0.19135
O          O       0.10156   0.34322   0.71117  -0.45294
O          O       0.40629   0.29348   0.62891  -0.46697
O          O       0.76804   0.36468   0.66242  -0.44721
O          O       0.89894   0.65693   0.28856  -0.45382
O          O       0.59323   0.70668   0.37125  -0.46771
O          O       0.23222   0.63514   0.33750  -0.44651

