data_crystal

_audit_creation_method 'AiiDA-DDEC plugin'

_cell_length_a         9.98026
_cell_length_b        11.30573
_cell_length_c        14.65988

_cell_angle_alpha     91.32054
_cell_angle_beta     90.00319
_cell_angle_gamma     89.99865

_symmetry_space_group_name_Hall 'P 1'
_symmetry_space_group_name_H-M  'P 1'

loop_
_symmetry_equiv_pos_as_xyz
 'x,y,z'

loop_
_atom_site_label
_atom_site_type_symbol
_atom_site_fract_x
_atom_site_fract_y
_atom_site_fract_z
_atom_site_charge
Ni         Ni      0.92487   0.24458   0.36636   0.98911
Ni         Ni      0.61705   0.23980   0.30783   0.96054
Ni         Ni      0.42486   0.25542   0.13364   0.98882
Ni         Ni      0.11701   0.26026   0.19220   0.96043
Ni         Ni      0.07513   0.75542   0.63363   0.98911
Ni         Ni      0.38296   0.76020   0.69216   0.96052
Ni         Ni      0.57515   0.74458   0.86635   0.98878
Ni         Ni      0.88299   0.73974   0.80780   0.96044
Ni         Ni     -0.00000   0.50000   0.50000   0.98575
Ni         Ni      0.50000   0.00000   0.00000   0.98564
Ni         Ni     -0.00000  -0.00000   0.50000   0.99719
Ni         Ni      0.50000   0.50000   0.00000   0.99728
H          H       0.70677  -0.00184   0.49223   0.05689
H          H       0.60699   0.44403   0.45248   0.05094
H          H       0.20378   0.01253   0.26434   0.04514
H          H       0.75361   0.14334   0.12373   0.05123
H          H       0.16444   0.31319   0.57782   0.04827
H          H       0.05899   0.52878   0.22977   0.05729
H          H       0.20673   0.50179   0.00772   0.05668
H          H       0.10696   0.05612   0.04754   0.05062
H          H       0.70384   0.48751   0.23570   0.04503
H          H       0.25377   0.35682   0.37631   0.05088
H          H       0.66447   0.18684   0.92217   0.04836
H          H       0.55898   0.97121   0.27022   0.05702
H          H       0.29323   0.00184   0.50777   0.05693
H          H       0.39301   0.55597   0.54752   0.05099
H          H       0.79622   0.98747   0.73566   0.04495
H          H       0.24639   0.85666   0.87626   0.05126
H          H       0.83557   0.68681   0.42218   0.04825
H          H       0.94101   0.47122   0.77023   0.05720
H          H       0.79328   0.49821   0.99228   0.05662
H          H       0.89304   0.94388   0.95246   0.05068
H          H       0.29616   0.51249   0.76430   0.04504
H          H       0.74624   0.64318   0.62369   0.05098
H          H       0.33554   0.81316   0.07782   0.04827
H          H       0.44103   0.02879   0.72978   0.05711
C          C       0.72518   0.07041   0.44497   0.52290
C          C       0.71551   0.42778   0.44641   0.51535
C          C       0.13346   0.04366   0.31779   0.51720
C          C       0.83568   0.17442   0.16831   0.51850
C          C       0.10258   0.25763   0.53206   0.52936
C          C       0.02693   0.48282   0.29153   0.51273
C          C       0.22514   0.42959   0.05503   0.52337
C          C       0.21549   0.07238   0.05361   0.51611
C          C       0.63348   0.45634   0.18228   0.51780
C          C       0.33574   0.32560   0.33171   0.51861
C          C       0.60260   0.24238   0.96794   0.52960
C          C       0.52691   0.01717   0.20845   0.51326
C          C       0.27483   0.92959   0.55503   0.52296
C          C       0.28449   0.57222   0.55359   0.51546
C          C       0.86654   0.95634   0.68221   0.51739
C          C       0.16432   0.82558   0.83168   0.51859
C          C       0.89742   0.74237   0.46794   0.52936
C          C       0.97307   0.51718   0.70846   0.51258
C          C       0.77486   0.57041   0.94497   0.52329
C          C       0.78451   0.92762   0.94639   0.51624
C          C       0.36652   0.54366   0.81772   0.51790
C          C       0.66426   0.67440   0.66829   0.51872
C          C       0.39741   0.75762   0.03206   0.52953
C          C       0.47309   0.98283   0.79155   0.51322
O          O       0.84872   0.10194   0.43664  -0.55717
O          O       0.62551   0.11293   0.40474  -0.49700
O          O       0.80679   0.19010   0.25343  -0.56133
O          O       0.74937   0.34799   0.38646  -0.56503
O          O       0.08746   0.14912   0.30800  -0.56831
O          O       0.01294   0.36976   0.28220  -0.56196
O          O       0.02625   0.31529   0.47721  -0.56696
O          O       0.94809   0.18974   0.13153  -0.49480
O          O       0.00694   0.54283   0.36307  -0.49804
O          O       0.79294   0.48815   0.49622  -0.49802
O          O       0.10771   0.97486   0.38112  -0.49117
O          O       0.11383   0.14779   0.53677  -0.50704
O          O       0.34869   0.39807   0.06336  -0.55709
O          O       0.12547   0.38710   0.09527  -0.49717
O          O       0.30681   0.30991   0.24659  -0.56137
O          O       0.24928   0.15236   0.11346  -0.56485
O          O       0.58740   0.35094   0.19216  -0.56832
O          O       0.51293   0.13022   0.21779  -0.56209
O          O       0.52629   0.18471   0.02279  -0.56710
O          O       0.44816   0.31022   0.36849  -0.49450
O          O       0.50694   0.95715   0.13691  -0.49835
O          O       0.29292   0.01191   0.00387  -0.49841
O          O       0.60777   0.52507   0.11887  -0.49170
O          O       0.61381   0.35223   0.96324  -0.50718
O          O       0.15128   0.89806   0.56335  -0.55722
O          O       0.37450   0.88707   0.59526  -0.49693
O          O       0.19321   0.80990   0.74657  -0.56133
O          O       0.25064   0.65201   0.61354  -0.56512
O          O       0.91254   0.85088   0.69200  -0.56837
O          O       0.98706   0.63024   0.71780  -0.56188
O          O       0.97375   0.68471   0.52279  -0.56698
O          O       0.05191   0.81026   0.86847  -0.49501
O          O       0.99307   0.45717   0.63693  -0.49794
O          O       0.20707   0.51185   0.50377  -0.49804
O          O       0.89229   0.02514   0.61888  -0.49120
O          O       0.88617   0.85221   0.46323  -0.50693
O          O       0.65131   0.60193   0.93663  -0.55710
O          O       0.87453   0.61290   0.90473  -0.49696
O          O       0.69320   0.69009   0.75340  -0.56146
O          O       0.75073   0.84764   0.88654  -0.56486
O          O       0.41261   0.64906   0.80784  -0.56834
O          O       0.48707   0.86978   0.78221  -0.56203
O          O       0.47372   0.81529   0.97721  -0.56695
O          O       0.55185   0.68978   0.63151  -0.49451
O          O       0.49307   0.04285   0.86309  -0.49842
O          O       0.70708   0.98809   0.99613  -0.49857
O          O       0.39224   0.47493   0.88113  -0.49186
O          O       0.38619   0.64777   0.03676  -0.50726

