data_crystal

_audit_creation_method 'AiiDA-DDEC plugin'

_cell_length_a         9.22648
_cell_length_b        16.05942
_cell_length_c        16.10689

_cell_angle_alpha     72.61384
_cell_angle_beta     74.32790
_cell_angle_gamma     75.98596

_symmetry_space_group_name_Hall 'P 1'
_symmetry_space_group_name_H-M  'P 1'

loop_
_symmetry_equiv_pos_as_xyz
 'x,y,z'

loop_
_atom_site_label
_atom_site_type_symbol
_atom_site_fract_x
_atom_site_fract_y
_atom_site_fract_z
_atom_site_charge
Co         Co      0.49984   0.49949   0.00038   0.59942
Co         Co     -0.00021   0.00002   0.50015   0.59516
Co         Co     -0.00005   0.50010   0.49970   0.60766
H          H       0.95853   0.67929   0.02397   0.13336
H          H       0.94704   0.73656   0.15604   0.09936
H          H       0.17606   0.69240   0.22626   0.10170
H          H       0.40776   0.59374   0.16132   0.08043
H          H       0.19051   0.38164   0.63360   0.08729
H          H       0.27612   0.38883   0.76557   0.11729
H          H       0.97356   0.63983   0.75889   0.12412
H          H       0.89989   0.62334   0.62675   0.08740
H          H       0.94482   0.00273   0.82238   0.13498
H          H       0.10291   0.11985   0.79591   0.10863
H          H       0.21966   0.19252   0.63689   0.10961
H          H       0.17789   0.14263   0.51347   0.08528
H          H       0.63180   0.65116   0.00605   0.08852
H          H       0.74186   0.78352   0.90627   0.12432
H          H       0.64610   0.72216   0.68569   0.12102
H          H       0.54050   0.59268   0.79349   0.09534
H          H       0.47410   0.42151   0.65189   0.12066
H          H       0.55094   0.25416   0.68640   0.10984
H          H       0.82801   0.18915   0.64162   0.10880
H          H       0.01622   0.29257   0.56395   0.08023
H          H       0.35664   0.97232   0.45335   0.09509
H          H       0.58090   0.85146   0.46704   0.11346
H          H       0.26689   0.66902   0.60114   0.12223
H          H       0.05387   0.79773   0.58466   0.08925
H          H       0.04134   0.32082   0.97595   0.13312
H          H       0.05327   0.26364   0.84375   0.09977
H          H       0.82416   0.30749   0.77365   0.10157
H          H       0.59223   0.40592   0.83874   0.08012
H          H       0.80939   0.61850   0.36623   0.08740
H          H       0.72365   0.61132   0.23429   0.11732
H          H       0.02640   0.36018   0.24099   0.12402
H          H       0.09994   0.37678   0.37312   0.08810
H          H       0.05531   0.99720   0.17781   0.13499
H          H       0.89749   0.88002   0.20426   0.10792
H          H       0.77993   0.80764   0.36317   0.10947
H          H       0.82165   0.85745   0.48664   0.08516
H          H       0.36794   0.34855   0.99407   0.08926
H          H       0.25822   0.21615   0.09394   0.12410
H          H       0.35404   0.27782   0.31443   0.12079
H          H       0.45943   0.40733   0.20642   0.09558
H          H       0.52588   0.57849   0.34815   0.12058
H          H       0.44931   0.74587   0.31369   0.11019
H          H       0.17214   0.81099   0.35827   0.10915
H          H       0.98380   0.70756   0.43586   0.08034
H          H       0.64320   0.02776   0.54685   0.09483
H          H       0.41889   0.14855   0.53295   0.11351
H          H       0.73301   0.33101   0.39874   0.12214
H          H       0.94596   0.20227   0.41553   0.08949
C          C       0.18787   0.52647   0.84427   0.23513
C          C       0.20645   0.57006   0.95060   0.21238
C          C       0.18800   0.60827   0.02461   0.17255
C          C       0.05456   0.66328   0.05650  -0.15397
C          C       0.04959   0.69424   0.12941  -0.04413
C          C       0.17646   0.66979   0.16888  -0.14523
C          C       0.30530   0.61486   0.13348   0.08998
C          C       0.14585   0.43791   0.66299   0.07035
C          C       0.19364   0.44231   0.73576  -0.17417
C          C       0.13458   0.51657   0.77136   0.08591
C          C       0.02405   0.58200   0.73240  -0.15563
C          C       0.98305   0.57283   0.65925   0.07936
C          C       0.77347   0.83957   0.73069   0.24400
C          C       0.89273   0.94574   0.69041   0.20333
C          C       0.98059   0.01224   0.68261   0.16630
C          C      -0.00050   0.03557   0.75573  -0.15504
C          C       0.08729   0.10019   0.74023  -0.04124
C          C       0.15374   0.13988   0.65262  -0.15226
C          C       0.13009   0.11326   0.58314   0.08980
C          C       0.63600   0.66943   0.93489   0.08014
C          C       0.69661   0.74279   0.87974  -0.16382
C          C       0.70264   0.76435   0.78779   0.07171
C          C       0.64441   0.70926   0.75620  -0.17281
C          C       0.58587   0.63654   0.81624   0.08570
C          C       0.56484   0.67090   0.54115   0.22975
C          C       0.66999   0.53721   0.56822   0.21116
C          C       0.70439   0.44136   0.59227   0.17085
C          C       0.59198   0.38868   0.63519  -0.14241
C          C       0.63569   0.29705   0.65370  -0.03633
C          C       0.78995   0.26045   0.62884  -0.14122
C          C       0.89510   0.31725   0.58574   0.08246
C          C       0.34104   0.90430   0.48638   0.07863
C          C       0.46648   0.83609   0.49380  -0.17901
C          C       0.44304   0.74851   0.53477   0.07283
C          C       0.29062   0.73563   0.56899  -0.15743
C          C       0.17215   0.80723   0.55934   0.07979
C          C       0.81186   0.47345   0.15564   0.23483
C          C       0.79329   0.42983   0.04934   0.21172
C          C       0.81189   0.39169   0.97528   0.17280
C          C       0.94538   0.33675   0.94342  -0.15386
C          C       0.95058   0.30582   0.87045  -0.04444
C          C       0.82371   0.33014   0.83101  -0.14510
C          C       0.69472   0.38491   0.86651   0.09087
C          C       0.85393   0.56223   0.33680   0.07073
C          C       0.80608   0.55775   0.26407  -0.17350
C          C       0.86508   0.48341   0.22855   0.08558
C          C       0.97574   0.41802   0.26747  -0.15529
C          C       0.01678   0.42726   0.34059   0.07834
C          C       0.22652   0.16034   0.26957   0.24290
C          C       0.10717   0.05422   0.30984   0.20373
C          C       0.01962   0.98759   0.31761   0.16599
C          C       0.00065   0.96435   0.24445  -0.15492
C          C       0.91302   0.89967   0.25995  -0.04089
C          C       0.84625   0.86008   0.34751  -0.15127
C          C       0.86978   0.88672   0.41700   0.08939
C          C       0.36385   0.33029   0.06522   0.07781
C          C       0.30325   0.25699   0.12047  -0.16312
C          C       0.29719   0.23558   0.21243   0.07117
C          C       0.35552   0.29069   0.24393  -0.17122
C          C       0.41408   0.36335   0.18382   0.08520
C          C       0.43495   0.32917   0.45878   0.22870
C          C       0.32992   0.46288   0.43166   0.21158
C          C       0.29557   0.55873   0.40767   0.16943
C          C       0.40803   0.61138   0.36484  -0.14175
C          C       0.36445   0.70303   0.34634  -0.03708
C          C       0.21016   0.73966   0.37113  -0.14118
C          C       0.10494   0.68288   0.41411   0.08248
C          C       0.65873   0.09576   0.51364   0.07886
C          C       0.53330   0.16398   0.50623  -0.17917
C          C       0.55674   0.25154   0.46515   0.07270
C          C       0.70920   0.26443   0.43101  -0.15649
C          C       0.82765   0.19281   0.44066   0.07859
N          N       0.33727   0.51165   0.93093  -0.22539
N          N       0.32586   0.48250   0.86278  -0.27511
N          N       0.10983   0.58216   0.89712  -0.40516
N          N       0.31196   0.58463   0.06278  -0.26085
N          N       0.04362   0.50254   0.62338  -0.23763
N          N       0.87254   0.93249   0.61482  -0.23377
N          N       0.79554   0.86369   0.64029  -0.26839
N          N       0.83181   0.88951   0.76460  -0.41947
N          N       0.04551   0.05073   0.59724  -0.26287
N          N       0.58124   0.61590   0.90457  -0.22883
N          N       0.78446   0.58465   0.52520  -0.23717
N          N       0.71704   0.67182   0.50707  -0.28011
N          N       0.53127   0.58810   0.57993  -0.40312
N          N       0.85418   0.40604   0.56769  -0.26024
N          N       0.19457   0.89127   0.51798  -0.24058
N          N       0.66237   0.48812   0.06912  -0.22499
N          N       0.67373   0.51727   0.13727  -0.27457
N          N       0.88998   0.41782   0.10274  -0.40400
N          N       0.68776   0.41502   0.93733  -0.26142
N          N       0.95628   0.49763   0.37634  -0.23740
N          N       0.12736   0.06745   0.38544  -0.23487
N          N       0.20455   0.13616   0.35996  -0.26727
N          N       0.16821   0.11039   0.23565  -0.41904
N          N       0.95409   0.94936   0.40295  -0.26261
N          N       0.41848   0.38389   0.09552  -0.22670
N          N       0.21539   0.41549   0.47463  -0.23698
N          N       0.28268   0.32830   0.49273  -0.27953
N          N       0.46860   0.41194   0.41993  -0.40299
N          N       0.14573   0.59408   0.43207  -0.25992
N          N       0.80520   0.10880   0.48218  -0.23990

