data_crystal

_audit_creation_method 'AiiDA-DDEC plugin'

_cell_length_a        11.51148
_cell_length_b        11.51148
_cell_length_c        12.78635

_cell_angle_alpha     90.00045
_cell_angle_beta     89.99955
_cell_angle_gamma     90.00645

_symmetry_space_group_name_Hall 'P 1'
_symmetry_space_group_name_H-M  'P 1'

loop_
_symmetry_equiv_pos_as_xyz
 'x,y,z'

loop_
_atom_site_label
_atom_site_type_symbol
_atom_site_fract_x
_atom_site_fract_y
_atom_site_fract_z
_atom_site_charge
Cu         Cu      0.64915   0.35100   0.74961   0.33800
Cu         Cu      0.35100   0.64915   0.25039   0.33796
Cu         Cu      0.14890   0.14891   0.50000   0.33755
Cu         Cu      0.85106   0.85106  -0.00001   0.33766
H          H       0.83148   0.51635   0.71126   0.08936
H          H       0.91048   0.69955   0.78857   0.08866
H          H       0.37179   0.27497   0.92343   0.08246
H          H       0.16857   0.48369   0.21128   0.08964
H          H       0.08953   0.30045   0.28857   0.08939
H          H       0.62823   0.72499   0.42341   0.08288
H          H       0.98352   0.33144   0.46116   0.08932
H          H       0.80046   0.41054   0.53861   0.08940
H          H       0.22487   0.87174   0.67333   0.08219
H          H       0.01649   0.66859   0.96119   0.08979
H          H       0.19956   0.58949   0.03867   0.08850
H          H       0.77515   0.12825   0.17333   0.08303
H          H       0.66859   0.01650   0.03881   0.08976
H          H       0.58949   0.19956   0.96133   0.08850
H          H       0.12826   0.77515   0.82667   0.08290
H          H       0.33143   0.98352   0.53884   0.08929
H          H       0.41054   0.80046   0.46138   0.08929
H          H       0.87175   0.22487   0.32667   0.08226
H          H       0.51635   0.83148   0.28874   0.08937
H          H       0.69955   0.91049   0.21143   0.08863
H          H       0.27497   0.37179   0.07657   0.08249
H          H       0.48369   0.16857   0.78872   0.08954
H          H       0.30045   0.08953   0.71143   0.08928
H          H       0.72499   0.62823   0.57659   0.08285
C          C       0.79262   0.55434   0.78075  -0.00270
C          C       0.83719   0.65483   0.82421   0.00916
C          C       0.69841   0.64806   0.95344   0.08592
C          C       0.54624   0.65133   0.09113   0.09200
C          C       0.49490   0.54888   0.04383   0.09112
C          C       0.35391   0.40783   0.04234   0.01466
C          C       0.20739   0.44567   0.28078  -0.00164
C          C       0.16280   0.34519   0.32423   0.00652
C          C       0.30156   0.35192   0.45346   0.08545
C          C       0.45371   0.34869   0.59110   0.09108
C          C       0.50506   0.45115   0.54385   0.09153
C          C       0.64605   0.59219   0.54237   0.01430
C          C       0.94555   0.29258   0.53066  -0.00222
C          C       0.84511   0.33717   0.57416   0.00731
C          C       0.85188   0.19838   0.70340   0.08599
C          C       0.84873   0.04635   0.84116   0.09242
C          C       0.95114   0.99501   0.79387   0.09159
C          C       0.09218   0.85404   0.79241   0.01260
C          C       0.05444   0.70744   0.03071  -0.00395
C          C       0.15488   0.66284   0.07424   0.01107
C          C       0.14810   0.80161   0.20345   0.08484
C          C       0.15128   0.95366   0.34120   0.09141
C          C       0.04888   0.00502   0.29390   0.09124
C          C       0.90783   0.14598   0.29241   0.01598
C          C       0.70744   0.05445   0.96929  -0.00400
C          C       0.66284   0.15488   0.92576   0.01099
C          C       0.80160   0.14810   0.79655   0.08475
C          C       0.95366   0.15129   0.65880   0.09131
C          C       0.00501   0.04887   0.70610   0.09125
C          C       0.14597   0.90783   0.70759   0.01602
C          C       0.29257   0.94556   0.46933  -0.00233
C          C       0.33716   0.84511   0.42583   0.00722
C          C       0.19838   0.85188   0.29660   0.08601
C          C       0.04634   0.84873   0.15883   0.09246
C          C       0.99500   0.95114   0.20613   0.09142
C          C       0.85404   0.09218   0.20759   0.01257
C          C       0.55434   0.79262   0.21925  -0.00279
C          C       0.65482   0.83720   0.17579   0.00916
C          C       0.64806   0.69841   0.04655   0.08593
C          C       0.65132   0.54624   0.90887   0.09195
C          C       0.54888   0.49490   0.95617   0.09104
C          C       0.40783   0.35391   0.95765   0.01475
C          C       0.44567   0.20739   0.71922  -0.00175
C          C       0.34519   0.16280   0.67576   0.00663
C          C       0.35192   0.30156   0.54653   0.08553
C          C       0.34869   0.45372   0.40890   0.09106
C          C       0.45115   0.50506   0.45614   0.09135
C          C       0.59219   0.64605   0.45762   0.01427
N          N       0.69929   0.49694   0.82167  -0.21910
N          N       0.79241   0.70372   0.91197  -0.24658
N          N       0.39610   0.50536   0.08600  -0.25428
N          N       0.30070   0.50306   0.32176  -0.21885
N          N       0.20752   0.29632   0.41203  -0.24460
N          N       0.60381   0.49470   0.58612  -0.25441
N          N       0.00294   0.19924   0.57159  -0.21890
N          N       0.79618   0.29234   0.66191  -0.24483
N          N       0.99472   0.89631   0.83614  -0.25362
N          N       0.99705   0.80076   0.07164  -0.21835
N          N       0.20376   0.70763   0.16200  -0.24800
N          N       0.00529   0.10373   0.33616  -0.25417
N          N       0.80076   0.99705   0.92836  -0.21839
N          N       0.70763   0.20377   0.83800  -0.24779
N          N       0.10373   0.00529   0.66384  -0.25408
N          N       0.19924   0.00294   0.42841  -0.21888
N          N       0.29234   0.79619   0.33809  -0.24481
N          N       0.89630   0.99472   0.16386  -0.25340
N          N       0.49694   0.69929   0.17833  -0.21904
N          N       0.70372   0.79241   0.08803  -0.24654
N          N       0.50536   0.39610   0.91400  -0.25417
N          N       0.50306   0.30070   0.67824  -0.21890
N          N       0.29632   0.20752   0.58796  -0.24460
N          N       0.49470   0.60381   0.41388  -0.25417

