data_crystal

_audit_creation_method 'AiiDA-DDEC plugin'

_cell_length_a         4.97969
_cell_length_b        16.98433
_cell_length_c        17.17305

_cell_angle_alpha     89.99955
_cell_angle_beta     90.00000
_cell_angle_gamma     90.00000

_symmetry_space_group_name_Hall 'P 1'
_symmetry_space_group_name_H-M  'P 1'

loop_
_symmetry_equiv_pos_as_xyz
 'x,y,z'

loop_
_atom_site_label
_atom_site_type_symbol
_atom_site_fract_x
_atom_site_fract_y
_atom_site_fract_z
_atom_site_charge
Zn         Zn      0.88513   0.91085   0.65476   0.78807
Zn         Zn      0.38223   0.83592   0.58379   0.80539
Zn         Zn      0.88513   0.08915   0.34525   0.78813
Zn         Zn      0.38223   0.16408   0.41621   0.80542
Zn         Zn      0.88513   0.41085   0.84525   0.78788
Zn         Zn      0.38223   0.33593   0.91621   0.80536
Zn         Zn      0.88513   0.58915   0.15476   0.78802
Zn         Zn      0.38223   0.66408   0.08379   0.80549
H          H       0.34303   0.05720   0.58284   0.08928
H          H       0.54141   0.00479   0.64968   0.04497
H          H       0.44656   0.14917   0.71974   0.12045
H          H       0.75264   0.13121   0.86741   0.13876
H          H       0.62586   0.00535   0.79421   0.10044
H          H       0.03654   0.84732   0.48962   0.04361
H          H       0.84430   0.91944   0.44198   0.09130
H          H       0.94033   0.78891   0.34204   0.12140
H          H       0.24631   0.63853   0.34956   0.13689
H          H       0.11993   0.70342   0.47880   0.10320
H          H       0.34303   0.94281   0.41717   0.08922
H          H       0.54141   0.99522   0.35032   0.04498
H          H       0.44656   0.85084   0.28026   0.12038
H          H       0.75264   0.86880   0.13259   0.13841
H          H       0.62586   0.99466   0.20580   0.10055
H          H       0.03654   0.15268   0.51038   0.04357
H          H       0.84430   0.08057   0.55802   0.09095
H          H       0.94033   0.21109   0.65796   0.12145
H          H       0.24631   0.36148   0.65044   0.13712
H          H       0.11993   0.29658   0.52121   0.10328
H          H       0.34302   0.55721   0.91716   0.08962
H          H       0.54141   0.50480   0.85032   0.04491
H          H       0.44656   0.64918   0.78024   0.12071
H          H       0.75265   0.63121   0.63258   0.13866
H          H       0.62584   0.50535   0.70580   0.10030
H          H       0.03653   0.34732   0.01037   0.04360
H          H       0.84428   0.41943   0.05801   0.09113
H          H       0.94031   0.28892   0.15795   0.12138
H          H       0.24630   0.13853   0.15045   0.13699
H          H       0.11993   0.20341   0.02120   0.10327
H          H       0.34302   0.44280   0.08284   0.08925
H          H       0.54141   0.49521   0.14969   0.04495
H          H       0.44656   0.35083   0.21977   0.12061
H          H       0.75265   0.36880   0.36743   0.13865
H          H       0.62584   0.49465   0.29421   0.10058
H          H       0.03653   0.65269   0.98963   0.04373
H          H       0.84428   0.58057   0.94199   0.09085
H          H       0.94031   0.71109   0.84205   0.12112
H          H       0.24630   0.86148   0.84956   0.13715
H          H       0.11993   0.79660   0.97880   0.10341
C          C       0.32961   0.01321   0.63012   0.02657
C          C       0.17851   0.04991   0.69826   0.21979
C          C       0.27118   0.11672   0.73915  -0.19261
C          C       0.11703   0.14447   0.80186   0.02383
C          C       0.87715   0.10679   0.82134  -0.14640
C          C       0.79859   0.04123   0.77925   0.08026
C          C       0.19326   0.21541   0.84832   0.55370
C          C       0.82602   0.86872   0.48197   0.02405
C          C       0.67224   0.80328   0.44127   0.22229
C          C       0.76490   0.76681   0.37254  -0.19275
C          C       0.61196   0.70514   0.34108   0.02218
C          C       0.37127   0.68325   0.37675  -0.14270
C          C       0.29244   0.72122   0.44439   0.07719
C          C       0.69568   0.66191   0.26947   0.55329
C          C       0.32961   0.98679   0.36989   0.02648
C          C       0.17851   0.95009   0.30174   0.21947
C          C       0.27118   0.88329   0.26086  -0.19253
C          C       0.11703   0.85553   0.19815   0.02410
C          C       0.87715   0.89322   0.17867  -0.14644
C          C       0.79859   0.95878   0.22075   0.08017
C          C       0.19326   0.78460   0.15169   0.55393
C          C       0.82602   0.13129   0.51804   0.02470
C          C       0.67224   0.19673   0.55873   0.22221
C          C       0.76490   0.23319   0.62746  -0.19302
C          C       0.61196   0.29487   0.65892   0.02242
C          C       0.37127   0.31676   0.62325  -0.14251
C          C       0.29244   0.27879   0.55561   0.07716
C          C       0.69568   0.33810   0.73053   0.55281
C          C       0.32960   0.51322   0.86988   0.02638
C          C       0.17851   0.54992   0.80174   0.22004
C          C       0.27119   0.61672   0.76084  -0.19262
C          C       0.11703   0.64447   0.69814   0.02382
C          C       0.87716   0.60679   0.67865  -0.14659
C          C       0.79859   0.54123   0.72074   0.08030
C          C       0.19327   0.71541   0.65169   0.55344
C          C       0.82602   0.36871   0.01803   0.02430
C          C       0.67224   0.30327   0.05872   0.22214
C          C       0.76489   0.26681   0.12745  -0.19274
C          C       0.61195   0.20513   0.15892   0.02227
C          C       0.37126   0.18325   0.12325  -0.14269
C          C       0.29244   0.22121   0.05561   0.07712
C          C       0.69568   0.16191   0.23053   0.55323
C          C       0.32960   0.48679   0.13012   0.02639
C          C       0.17851   0.45009   0.19827   0.21955
C          C       0.27119   0.38329   0.23916  -0.19266
C          C       0.11703   0.35554   0.30186   0.02389
C          C       0.87716   0.39322   0.32135  -0.14641
C          C       0.79859   0.45877   0.27926   0.08013
C          C       0.19327   0.28459   0.34831   0.55367
C          C       0.82602   0.63130   0.98198   0.02405
C          C       0.67224   0.69673   0.94128   0.22200
C          C       0.76489   0.73320   0.87255  -0.19258
C          C       0.61195   0.79487   0.84108   0.02204
C          C       0.37127   0.81676   0.87675  -0.14241
C          C       0.29244   0.77880   0.94440   0.07711
C          C       0.69568   0.83810   0.76948   0.55317
N          N       0.95012   0.01399   0.71889  -0.26854
N          N       0.44433   0.77998   0.47577  -0.26680
N          N       0.95012   0.98602   0.28111  -0.26814
N          N       0.44433   0.22002   0.52424  -0.26693
N          N       0.95011   0.51400   0.78111  -0.26868
N          N       0.44432   0.27997   0.02423  -0.26666
N          N       0.95011   0.48601   0.21889  -0.26823
N          N       0.44432   0.72003   0.97578  -0.26655
O          O       0.21238   0.94444   0.60194  -0.53969
O          O       0.41464   0.25012   0.83193  -0.50704
O          O       0.03943   0.23833   0.90262  -0.54257
O          O       0.70696   0.89226   0.55133  -0.53972
O          O       0.92102   0.67903   0.23823  -0.50683
O          O       0.54491   0.60760   0.24285  -0.54141
O          O       0.21238   0.05557   0.39806  -0.53936
O          O       0.41464   0.74988   0.16808  -0.50714
O          O       0.03943   0.76168   0.09738  -0.54293
O          O       0.70696   0.10774   0.44867  -0.54026
O          O       0.92102   0.32098   0.76178  -0.50679
O          O       0.54491   0.39240   0.75715  -0.54088
O          O       0.21238   0.44444   0.89807  -0.53956
O          O       0.41465   0.75013   0.66808  -0.50670
O          O       0.03943   0.73834   0.59739  -0.54276
O          O       0.70696   0.39227   0.94867  -0.53969
O          O       0.92101   0.17903   0.26178  -0.50687
O          O       0.54491   0.10760   0.25715  -0.54125
O          O       0.21238   0.55556   0.10194  -0.53952
O          O       0.41465   0.24988   0.33192  -0.50694
O          O       0.03943   0.26167   0.40261  -0.54276
O          O       0.70696   0.60774   0.05133  -0.53973
O          O       0.92101   0.82097   0.73823  -0.50701
O          O       0.54491   0.89241   0.74285  -0.54089

