data_crystal

_audit_creation_method 'AiiDA-DDEC plugin'

_cell_length_a        10.97042
_cell_length_b        13.44559
_cell_length_c        14.83679

_cell_angle_alpha     99.37124
_cell_angle_beta     89.87322
_cell_angle_gamma     90.14387

_symmetry_space_group_name_Hall 'P 1'
_symmetry_space_group_name_H-M  'P 1'

loop_
_symmetry_equiv_pos_as_xyz
 'x,y,z'

loop_
_atom_site_label
_atom_site_type_symbol
_atom_site_fract_x
_atom_site_fract_y
_atom_site_fract_z
_atom_site_charge
Ni         Ni     -0.00036   0.11435   0.03942   1.00426
Ni         Ni      0.85893   0.91264   0.13407   0.90596
Ni         Ni      0.49905   0.38599   0.96103   1.00345
Ni         Ni      0.35981   0.58752   0.86582   0.90509
Ni         Ni      0.00036   0.88565   0.96057   1.00438
Ni         Ni      0.14107   0.08736   0.86592   0.90592
Ni         Ni      0.50095   0.61401   0.03897   1.00335
Ni         Ni      0.64019   0.41248   0.13418   0.90512
H          H       0.91354   0.03303   0.88483   0.40858
H          H       0.63828   0.07683   0.94879   0.10717
H          H       0.60442   0.90629   0.06003   0.10212
H          H       0.50073   0.08888   0.13015   0.11169
H          H       0.89058   0.79147   0.28753   0.12427
H          H       0.95300   0.82633   0.44995   0.12791
H          H       0.99324   0.14009   0.41954   0.12849
H          H       0.92000   0.09195   0.26071   0.11068
H          H       0.41257   0.46779   0.11586   0.40867
H          H       0.13770   0.42452   0.05122   0.10515
H          H       0.10489   0.59453   0.93966   0.10060
H          H       0.00078   0.41049   0.86991   0.11167
H          H       0.39073   0.70841   0.71247   0.11902
H          H       0.45316   0.67356   0.54981   0.12632
H          H       0.49320   0.35995   0.58048   0.13061
H          H       0.41989   0.40817   0.73954   0.11151
H          H       0.08646   0.96697   0.11517   0.40847
H          H       0.36172   0.92317   0.05120   0.10711
H          H       0.39558   0.09371   0.93997   0.10218
H          H       0.49927   0.91112   0.86985   0.11184
H          H       0.10942   0.20853   0.71247   0.12426
H          H       0.04700   0.17367   0.55005   0.12606
H          H       0.00676   0.85991   0.58046   0.12832
H          H       0.08000   0.90805   0.73929   0.11058
H          H       0.58743   0.53221   0.88413   0.40870
H          H       0.86230   0.57548   0.94878   0.10527
H          H       0.89511   0.40547   0.06034   0.10051
H          H      -0.00078   0.58951   0.13009   0.11161
H          H       0.60927   0.29159   0.28752   0.11907
H          H       0.54684   0.32644   0.45019   0.12620
H          H       0.50680   0.64005   0.41952   0.13061
H          H       0.58011   0.59183   0.26046   0.11156
C          C       0.62231   0.04881   0.01341  -0.13275
C          C       0.60781   0.93278   0.99400  -0.14468
C          C       0.50807   0.10222   0.05934  -0.12513
C          C       0.73645   0.07243   0.07215   0.62665
C          C       0.72282   0.89073   0.94261   0.61150
C          C       0.52746   0.21495   0.05910   0.62639
C          C       0.91146   0.86781   0.32100   0.09393
C          C       0.94828   0.88864   0.41172  -0.17675
C          C       0.97945   0.98763   0.45184   0.09320
C          C       0.96986   0.06173   0.39522  -0.17105
C          C       0.93016   0.03601   0.30562   0.09714
C          C       0.12225   0.45202   0.98642  -0.13229
C          C       0.10786   0.56800   0.00566  -0.14077
C          C       0.00834   0.39760   0.94081  -0.12622
C          C       0.23657   0.42777   0.92790   0.62686
C          C       0.22238   0.61097   0.05729   0.61143
C          C       0.02810   0.28494   0.94132   0.62901
C          C       0.41162   0.63215   0.67895   0.09813
C          C       0.44833   0.61131   0.58815  -0.17566
C          C       0.47943   0.51236   0.54816   0.09480
C          C       0.46981   0.43825   0.60481  -0.17445
C          C       0.43019   0.46399   0.69449   0.09820
C          C       0.37769   0.95119   0.98659  -0.13275
C          C       0.39219   0.06722   0.00600  -0.14465
C          C       0.49193   0.89778   0.94066  -0.12511
C          C       0.26355   0.92757   0.92785   0.62652
C          C       0.27718   0.10927   0.05739   0.61143
C          C       0.47254   0.78505   0.94090   0.62631
C          C       0.08854   0.13219   0.67899   0.09394
C          C       0.05172   0.11136   0.58827  -0.17530
C          C       0.02055   0.01237   0.54816   0.09323
C          C       0.03014   0.93827   0.60477  -0.17111
C          C       0.06984   0.96399   0.69438   0.09715
C          C       0.87775   0.54798   0.01358  -0.13241
C          C       0.89214   0.43200   0.99433  -0.14075
C          C       0.99166   0.60240   0.05919  -0.12625
C          C       0.76343   0.57223   0.07210   0.62697
C          C       0.77762   0.38903   0.94271   0.61119
C          C       0.97190   0.71506   0.05868   0.62899
C          C       0.58838   0.36785   0.32105   0.09805
C          C       0.55167   0.38869   0.41185  -0.17554
C          C       0.52057   0.48764   0.45183   0.09469
C          C       0.53019   0.56175   0.39519  -0.17454
C          C       0.56981   0.53601   0.30551   0.09825
N          N       0.90149   0.94038   0.26822  -0.23363
N          N       0.40174   0.55962   0.73180  -0.23517
N          N       0.09851   0.05962   0.73177  -0.23360
N          N       0.59826   0.44038   0.26820  -0.23502
O          O       0.81757   0.12473   0.04052  -0.56221
O          O       0.74545   0.03485   0.14603  -0.60491
O          O       0.81893   0.88504   0.99542  -0.63425
O          O       0.72767   0.87061   0.85851  -0.52421
O          O       0.58143   0.26628   0.12764  -0.57025
O          O       0.49130   0.24683   0.98763  -0.53715
O          O       0.99117   0.02093   0.91297  -0.86078
O          O       0.31635   0.37488   0.95958  -0.56125
O          O       0.24716   0.46498   0.85388  -0.60501
O          O       0.31990   0.61469   0.00492  -0.63738
O          O       0.22514   0.63378   0.14124  -0.52230
O          O       0.07959   0.23270   0.87208  -0.57204
O          O       0.99397   0.25383   0.01378  -0.53942
O          O       0.49044   0.47939   0.08750  -0.86046
O          O       0.18243   0.87527   0.95947  -0.56229
O          O       0.25455   0.96515   0.85396  -0.60468
O          O       0.18107   0.11496   0.00458  -0.63417
O          O       0.27233   0.12939   0.14149  -0.52430
O          O       0.41857   0.73372   0.87236  -0.57000
O          O       0.50870   0.75317   0.01237  -0.53730
O          O       0.00883   0.97907   0.08702  -0.86074
O          O       0.68365   0.62512   0.04042  -0.56116
O          O       0.75284   0.53502   0.14612  -0.60522
O          O       0.68010   0.38531   0.99508  -0.63731
O          O       0.77486   0.36621   0.85875  -0.52205
O          O       0.92041   0.76730   0.12791  -0.57219
O          O       0.00603   0.74617   0.98622  -0.53930
O          O       0.50956   0.52061   0.91250  -0.86038

