data_crystal

_audit_creation_method 'AiiDA-DDEC plugin'

_cell_length_a         4.82813
_cell_length_b        13.14196
_cell_length_c        22.74151

_cell_angle_alpha     89.96933
_cell_angle_beta     90.15186
_cell_angle_gamma     97.74352

_symmetry_space_group_name_Hall 'P 1'
_symmetry_space_group_name_H-M  'P 1'

loop_
_symmetry_equiv_pos_as_xyz
 'x,y,z'

loop_
_atom_site_label
_atom_site_type_symbol
_atom_site_fract_x
_atom_site_fract_y
_atom_site_fract_z
_atom_site_charge
Zn         Zn      0.32625   0.82459   0.36784   0.99651
Zn         Zn      0.39629   0.03782   0.43285   1.08859
Zn         Zn      0.10347   0.15347   0.30819   0.99775
Zn         Zn      0.16355   0.67529   0.86785   0.99453
Zn         Zn      0.10404   0.46219   0.93285   1.08975
Zn         Zn      0.39619   0.34661   0.80802   0.99817
Zn         Zn      0.67374   0.17541   0.63217   0.99657
Zn         Zn      0.60370   0.96217   0.56715   1.08862
Zn         Zn      0.89652   0.84652   0.69181   0.99776
Zn         Zn      0.83644   0.32471   0.13215   0.99455
Zn         Zn      0.89595   0.53781   0.06715   1.08975
Zn         Zn      0.60380   0.65338   0.19198   0.99829
P          P       0.57976   0.02775   0.29534   1.30503
P          P       0.81702   0.85235   0.45425   1.34718
P          P       0.91926   0.47242   0.79529   1.30327
P          P       0.67822   0.64750   0.95449   1.34814
P          P       0.42023   0.97225   0.70466   1.30500
P          P       0.18297   0.14765   0.54575   1.34693
P          P       0.08073   0.52758   0.20471   1.30341
P          P       0.32177   0.35249   0.04551   1.34809
H          H       0.16426   0.94350   0.24415   0.20315
H          H       0.45804   0.97560   0.19596   0.17743
H          H      -0.00093   0.71136   0.49909   0.19378
H          H       0.67711   0.73971   0.53204   0.19868
H          H       0.33369   0.55782   0.74453   0.20264
H          H       0.04203   0.52388   0.69598   0.17778
H          H       0.50040   0.78897  -0.00066   0.19266
H          H       0.82214   0.75968   0.03220   0.19801
H          H       0.83573   0.05650   0.75585   0.20303
H          H       0.54195   0.02440   0.80404   0.17755
H          H       0.00092   0.28864   0.50091   0.19376
H          H       0.32288   0.26028   0.46796   0.19853
H          H       0.66630   0.44218   0.25548   0.20269
H          H       0.95797   0.47611   0.30403   0.17785
H          H       0.49959   0.21103   0.00066   0.19270
H          H       0.17785   0.24032   0.96780   0.19812
C          C       0.39106   0.94395   0.23888  -0.61876
C          C       0.88506   0.77156   0.51635  -0.62715
C          C       0.05744   0.82938   0.56419   0.71340
C          C       0.45472   0.83552   0.24201   0.71282
C          C       0.10663   0.55631   0.73890  -0.61910
C          C       0.61323   0.72836   0.01660  -0.62727
C          C       0.44125   0.67069   0.06434   0.71595
C          C       0.04004   0.66448   0.74126   0.71070
C          C       0.60893   0.05605   0.76112  -0.61863
C          C       0.11493   0.22844   0.48365  -0.62710
C          C       0.94257   0.17062   0.43581   0.71341
C          C       0.54527   0.16448   0.75799   0.71255
C          C       0.89336   0.44368   0.26110  -0.61906
C          C       0.38675   0.27164   0.98341  -0.62730
C          C       0.55878   0.32930   0.93566   0.71602
C          C       0.95995   0.33552   0.25874   0.71063
O          O       0.51216   0.97389   0.35536  -0.76975
O          O       0.88757   0.02910   0.27683  -0.70415
O          O       0.50100   0.13744   0.29765  -0.76177
O          O       0.09441   0.89457   0.42303  -0.76101
O          O       0.68160   0.94365   0.47957  -0.76541
O          O       0.62696   0.77823   0.41419  -0.73556
O          O       0.31296   0.82354   0.56536  -0.52089
O          O       0.93127   0.88456   0.60120  -0.61736
O          O       0.58529   0.80188   0.19898  -0.49882
O          O       0.37466   0.77756   0.28586  -0.54934
O          O       0.91607   0.64151   0.34221   0.33454
O          O       0.83925   0.71176   0.30992  -0.11348
O          O       0.08223   0.67185   0.38694  -0.22460
O          O       0.98684   0.52598   0.85546  -0.76822
O          O       0.61122   0.47109   0.77672  -0.70409
O          O      -0.00161   0.36283   0.79777  -0.76127
O          O       0.40138   0.60517   0.92305  -0.76258
O          O       0.81725   0.55675   0.97963  -0.76596
O          O       0.86348   0.72200   0.91400  -0.73281
O          O       0.18570   0.67648   0.06540  -0.52330
O          O       0.56842   0.61553   0.10133  -0.61686
O          O       0.91621   0.69786   0.69695  -0.49587
O          O       0.11218   0.72233   0.78566  -0.55412
O          O       0.57135   0.85924   0.84540   0.33252
O          O       0.65054   0.78983   0.81300  -0.10978
O          O       0.40324   0.82786   0.88950  -0.22390
O          O       0.48783   0.02611   0.64464  -0.76997
O          O       0.11242   0.97089   0.72317  -0.70400
O          O       0.49899   0.86255   0.70235  -0.76160
O          O       0.90558   0.10542   0.57697  -0.76076
O          O       0.31839   0.05634   0.52043  -0.76527
O          O       0.37303   0.22176   0.58581  -0.73565
O          O       0.68702   0.17646   0.43464  -0.52095
O          O       0.06872   0.11544   0.39880  -0.61735
O          O       0.41469   0.19811   0.80103  -0.49839
O          O       0.62533   0.22243   0.71415  -0.54958
O          O       0.08392   0.35848   0.65780   0.33423
O          O       0.16074   0.28824   0.69008  -0.11324
O          O       0.91776   0.32814   0.61306  -0.22458
O          O       0.01315   0.47402   0.14454  -0.76831
O          O       0.38876   0.52891   0.22328  -0.70412
O          O       0.00160   0.63716   0.20223  -0.76148
O          O       0.59861   0.39482   0.07696  -0.76269
O          O       0.18274   0.44325   0.02037  -0.76605
O          O       0.13650   0.27799   0.08600  -0.73259
O          O       0.81425   0.32351   0.93460  -0.52311
O          O       0.43157   0.38446   0.89867  -0.61715
O          O       0.08378   0.30214   0.30305  -0.49581
O          O       0.88781   0.27766   0.21434  -0.55400
O          O       0.42864   0.14076   0.15461   0.33285
O          O       0.34945   0.21016   0.18701  -0.10988
O          O       0.59676   0.17214   0.11050  -0.22409

