data_crystal

_audit_creation_method 'AiiDA-DDEC plugin'

_cell_length_a         4.71098
_cell_length_b        13.15205
_cell_length_c        23.32113

_cell_angle_alpha     100.01234
_cell_angle_beta     89.91673
_cell_angle_gamma     89.92742

_symmetry_space_group_name_Hall 'P 1'
_symmetry_space_group_name_H-M  'P 1'

loop_
_symmetry_equiv_pos_as_xyz
 'x,y,z'

loop_
_atom_site_label
_atom_site_type_symbol
_atom_site_fract_x
_atom_site_fract_y
_atom_site_fract_z
_atom_site_charge
Sr         Sr      0.24546   0.61269   0.23135   1.50594
Sr         Sr      0.73944   0.88767   0.26907   1.50653
Sr         Sr      0.75455   0.38732   0.76865   1.50602
Sr         Sr      0.26057   0.11234   0.73093   1.50640
H          H       0.57048   0.39814   0.92873   0.10998
H          H       0.44404   0.44424   0.03360   0.11773
H          H       0.70210   0.25221   0.00572   0.11592
H          H       0.81875   0.21030   0.89996   0.13097
H          H       0.44256   0.36060   0.17403   0.12123
H          H       0.56891   0.21532   0.22476   0.10992
H          H       0.83191   0.04927   0.15424   0.11971
H          H       0.70712   0.19241   0.10067   0.11376
H          H       0.07202   0.10248   0.57092   0.10966
H          H       0.94619   0.05572   0.46618   0.11747
H          H       0.20298   0.24812   0.49390   0.11579
H          H       0.31796   0.29049   0.59964   0.13135
H          H       0.94687   0.13969   0.32569   0.12067
H          H       0.07180   0.28615   0.27587   0.10888
H          H       0.33269   0.45119   0.34672   0.12078
H          H       0.20743   0.30744   0.39963   0.11346
H          H       0.42953   0.60187   0.07127   0.10967
H          H       0.55598   0.55577   0.96641   0.11741
H          H       0.29791   0.74780   0.99429   0.11618
H          H       0.18126   0.78971   0.10004   0.13122
H          H       0.55745   0.63941   0.82597   0.12094
H          H       0.43110   0.78469   0.77524   0.10981
H          H       0.16811   0.95074   0.84577   0.12012
H          H       0.29289   0.80760   0.89933   0.11417
H          H       0.92799   0.89753   0.42908   0.10964
H          H       0.05383   0.94429   0.53382   0.11759
H          H       0.79703   0.75189   0.50610   0.11577
H          H       0.68205   0.70952   0.40036   0.13127
H          H       0.05314   0.86032   0.67431   0.12086
H          H       0.92821   0.71386   0.72414   0.10893
H          H       0.66732   0.54882   0.65328   0.12066
H          H       0.79258   0.69257   0.60038   0.11345
C          C       0.28434   0.26141   0.84588   0.58500
C          C       0.21282   0.29397   0.90901  -0.02171
C          C       0.38816   0.36283   0.94587  -0.09920
C          C       0.30691   0.39435   0.00395  -0.08182
C          C       0.06417   0.35519   0.02529  -0.10532
C          C       0.88665   0.28612   0.98867  -0.08030
C          C       0.96495   0.25677   0.93013  -0.10278
C          C       0.06846   0.28610   0.13540  -0.09721
C          C       0.31030   0.29252   0.16933  -0.05475
C          C       0.39125   0.20895   0.19503  -0.08426
C          C       0.22037   0.11966   0.18826  -0.04150
C          C       0.97201   0.11533   0.15578  -0.07411
C          C       0.89185   0.19832   0.12865  -0.09670
C          C       0.30426   0.03684   0.22157   0.59255
C          C       0.78430   0.23985   0.65393   0.58320
C          C       0.71311   0.20676   0.59080  -0.02163
C          C       0.88896   0.13760   0.55391  -0.09723
C          C       0.80810   0.10558   0.49587  -0.08305
C          C       0.56445   0.14429   0.47461  -0.10550
C          C       0.38692   0.21400   0.51110  -0.07971
C          C       0.46490   0.24371   0.56961  -0.10265
C          C       0.57053   0.21367   0.36457  -0.09803
C          C       0.81341   0.20773   0.33075  -0.05434
C          C       0.89394   0.29200   0.30561  -0.08322
C          C       0.72236   0.38123   0.31275  -0.04219
C          C       0.47329   0.38510   0.34509  -0.07779
C          C       0.39307   0.30157   0.37174  -0.09370
C          C       0.80419   0.46432   0.27957   0.59383
C          C       0.71567   0.73860   0.15412   0.58488
C          C       0.78719   0.70604   0.09100  -0.02180
C          C       0.61185   0.63718   0.05414  -0.09915
C          C       0.69310   0.60566   0.99605  -0.08203
C          C       0.93584   0.64482   0.97471  -0.10527
C          C       0.11336   0.71389   0.01133  -0.08039
C          C       0.03506   0.74324   0.06987  -0.10232
C          C       0.93155   0.71391   0.86460  -0.09728
C          C       0.68972   0.70749   0.83067  -0.05482
C          C       0.60876   0.79106   0.80498  -0.08479
C          C       0.77964   0.88035   0.81175  -0.04115
C          C       0.02800   0.88468   0.84422  -0.07402
C          C       0.10817   0.80169   0.87136  -0.09676
C          C       0.69575   0.96317   0.77844   0.59267
C          C       0.21571   0.76016   0.34608   0.58341
C          C       0.28691   0.79325   0.40921  -0.02169
C          C       0.11105   0.86241   0.44609  -0.09732
C          C       0.19192   0.89443   0.50413  -0.08267
C          C       0.43557   0.85572   0.52540  -0.10546
C          C       0.61310   0.78602   0.48890  -0.07963
C          C       0.53511   0.75630   0.43039  -0.10298
C          C       0.42949   0.78634   0.63544  -0.09778
C          C       0.18660   0.79228   0.66925  -0.05443
C          C       0.10608   0.70801   0.69439  -0.08318
C          C       0.27765   0.61878   0.68725  -0.04209
C          C       0.52673   0.61491   0.65491  -0.07830
C          C       0.60695   0.69844   0.62826  -0.09366
C          C       0.19583   0.53569   0.72043   0.59398
S          S       0.96938   0.39087   0.10021   1.01440
S          S       0.47038   0.10870   0.39967   1.01364
S          S       0.03064   0.60914   0.89980   1.01473
S          S       0.52964   0.89131   0.60033   1.01315
O          O       0.53883   0.05107   0.24874  -0.63009
O          O       0.14155   0.95931   0.22276  -0.67101
O          O       0.50251   0.20713   0.83144  -0.57983
O          O       0.11370   0.28770   0.80795  -0.72434
O          O       0.11489   0.48711   0.12581  -0.57062
O          O       0.65915   0.38831   0.09980  -0.52256
O          O       0.03615   0.44993   0.25127  -0.63224
O          O       0.64082   0.54211   0.27969  -0.66783
O          O       0.00265   0.29352   0.66850  -0.57559
O          O       0.61230   0.21417   0.69189  -0.72555
O          O       0.61505   0.01186   0.37422  -0.57214
O          O       0.16011   0.11164   0.40000  -0.52178
O          O       0.46119   0.94894   0.75127  -0.63053
O          O       0.85847   0.04070   0.77725  -0.67068
O          O       0.49751   0.79288   0.16856  -0.57972
O          O       0.88631   0.71231   0.19205  -0.72431
O          O       0.88513   0.51291   0.87420  -0.57130
O          O       0.34086   0.61170   0.90020  -0.52251
O          O       0.96387   0.55008   0.74873  -0.63224
O          O       0.35919   0.45790   0.72032  -0.66812
O          O      -0.00264   0.70649   0.33151  -0.57615
O          O       0.38771   0.78584   0.30812  -0.72535
O          O       0.38497   0.98815   0.62579  -0.57160
O          O       0.83990   0.88837   0.60000  -0.52151

