data_crystal

_audit_creation_method 'AiiDA-DDEC plugin'

_cell_length_a         7.31615
_cell_length_b        13.65531
_cell_length_c        14.87830

_cell_angle_alpha     91.75008
_cell_angle_beta     89.99103
_cell_angle_gamma     89.99907

_symmetry_space_group_name_Hall 'P 1'
_symmetry_space_group_name_H-M  'P 1'

loop_
_symmetry_equiv_pos_as_xyz
 'x,y,z'

loop_
_atom_site_label
_atom_site_type_symbol
_atom_site_fract_x
_atom_site_fract_y
_atom_site_fract_z
_atom_site_charge
Cd         Cd      0.81493   0.02040   0.81508   0.85577
Cd         Cd      0.18509   0.52025   0.31513   0.85560
H          H       0.81786   0.80796   0.62012   0.11797
H          H       0.44551   0.62011   0.47131   0.14120
H          H       0.80843   0.30976   0.63084   0.09145
H          H       0.75847   0.21591   0.55047   0.08067
H          H       0.49608   0.24659   0.43201   0.08730
H          H       0.18653   0.73391   0.51202   0.11761
H          H       0.13370   0.94797   0.48499   0.13945
H          H       0.55917   0.92194   0.66061   0.14235
H          H       0.72945   0.74921   0.36570   0.15451
H          H       0.89058   0.68101   0.29888   0.16637
H          H       0.66881   0.63188   0.32037   0.16466
H          H       0.12651   0.48999   0.54004   0.12016
H          H       0.86904   0.59158   0.64590   0.14008
H          H       0.50364   0.29359   0.69892   0.08636
H          H       0.28947   0.15952   0.64590   0.08777
H          H       0.44163   0.12768   0.55886   0.08496
H          H       0.87404   0.04928   0.58990   0.11934
H          H       0.11008   0.85309   0.82901   0.16673
H          H       0.31707   0.92103   0.81771   0.16514
H          H       0.29880   0.80233   0.76667   0.15417
H          H       0.71525   0.37926   0.48269   0.08783
H          H       0.56395   0.41540   0.56858   0.08482
H          H       0.19007   0.23558   0.50204   0.09173
H          H       0.25037   0.32743   0.58291   0.08075
H          H       0.18230   0.30783   0.12009   0.11838
H          H       0.55483   0.12004   0.97128   0.14093
H          H       0.19157   0.80967   0.13089   0.09168
H          H       0.24135   0.71567   0.05052   0.08078
H          H       0.50436   0.74659   0.93180   0.08706
H          H       0.81374   0.23384   0.01199   0.11726
H          H       0.86647   0.44788   0.98492   0.13959
H          H       0.44093   0.42181   0.16062   0.14236
H          H       0.27119   0.24900   0.86558   0.15478
H          H       0.10958   0.18104   0.79887   0.16659
H          H       0.33115   0.13160   0.82020   0.16484
H          H       0.87385   0.98991   0.04008   0.12063
H          H       0.13138   0.09149   0.14588   0.14007
H          H       0.49643   0.79369   0.19884   0.08654
H          H       0.71025   0.65926   0.14592   0.08782
H          H       0.55820   0.62755   0.05890   0.08479
H          H       0.12610   0.54921   0.08984   0.11945
H          H       0.88992   0.35321   0.32903   0.16673
H          H       0.68288   0.42108   0.31773   0.16543
H          H       0.70124   0.30240   0.26672   0.15432
H          H       0.28508   0.87915   0.98280   0.08754
H          H       0.43618   0.91501   0.06869   0.08434
H          H       0.80972   0.73516   0.00202   0.09110
H          H       0.75024   0.82688   0.08271   0.08015
C          C       0.67949   0.79212   0.59713  -0.15134
C          C       0.85724   0.62977   0.43061   0.33632
C          C       0.35982   0.83262   0.58966   0.14961
C          C       0.46883   0.68705   0.51117  -0.14629
C          C       0.69723   0.27629   0.59096  -0.16389
C          C       0.64300   0.15965   0.71513   0.56639
C          C       0.44943   0.30819   0.47582  -0.10319
C          C       0.32501   0.74972   0.53498  -0.14983
C          C       0.10645   0.94996   0.55640  -0.12078
C          C       0.53579   0.85487   0.62091  -0.14723
C          C       0.78200   0.67559   0.34932  -0.48161
C          C       0.64495   0.70939   0.54223   0.14733
C          C       0.02039   0.54058   0.52136  -0.03241
C          C       0.89659   0.59052   0.57453  -0.12276
C          C       0.55271   0.23323   0.65438  -0.10344
C          C       0.39160   0.19004   0.60041  -0.17539
C          C       0.98183  -0.00011   0.60903  -0.03037
C          C       0.14739   0.91321   0.70078   0.34075
C          C       0.36088   0.38194   0.41450   0.56825
C          C       0.22270   0.86967   0.78309  -0.48390
C          C       0.61200   0.35121   0.52890  -0.17739
C          C       0.30541   0.26676   0.54052  -0.16548
C          C       0.32069   0.29203   0.09710  -0.15085
C          C       0.14299   0.12972   0.93058   0.33665
C          C       0.64037   0.33255   0.08965   0.14634
C          C       0.53146   0.18699   0.01113  -0.14551
C          C       0.30264   0.77608   0.09098  -0.16445
C          C       0.35692   0.65969   0.21536   0.56707
C          C       0.55084   0.80799   0.97588  -0.10315
C          C       0.67526   0.24965   0.03497  -0.14937
C          C       0.89371   0.44990   0.05635  -0.12372
C          C       0.46436   0.35477   0.12089  -0.14701
C          C       0.21823   0.17546   0.84924  -0.48241
C          C       0.35532   0.20931   0.04218   0.14533
C          C       0.97996   0.04053   0.02137  -0.03326
C          C       0.10375   0.09043   0.07450  -0.12241
C          C       0.44710   0.73320   0.15450  -0.10309
C          C       0.60808   0.68983   0.10054  -0.17568
C          C       0.01823   0.49984   0.10897  -0.03047
C          C       0.85260   0.41326   0.20076   0.33801
C          C       0.63942   0.88195   0.91473   0.56899
C          C       0.77730   0.36975   0.28310  -0.48454
C          C       0.38817   0.85090   0.02894  -0.17652
C          C       0.69449   0.76632   0.04054  -0.16425
N          N       0.21114   0.89549   0.61503  -0.02652
N          N       0.00774   0.97615   0.69790  -0.35663
N          N      -0.00463   0.56579   0.43279  -0.35385
N          N       0.79375   0.64669   0.51653  -0.01821
N          N       0.78896   0.39547   0.11500  -0.01824
N          N       0.99226   0.47619   0.19786  -0.35654
N          N       0.00483   0.06576   0.93279  -0.35408
N          N       0.20656   0.14661   0.01649  -0.01758
O          O       0.40777   0.47236   0.42239  -0.57690
O          O       0.60098   0.06863   0.70508  -0.57526
O          O       0.24000   0.35196   0.35854  -0.58697
O          O       0.75982   0.19032   0.77279  -0.58744
O          O       0.59198   0.97229   0.92247  -0.57747
O          O       0.39920   0.56871   0.20541  -0.57593
O          O       0.76036   0.85207   0.85873  -0.58757
O          O       0.23987   0.69038   0.27291  -0.58779

