data_crystal

_audit_creation_method 'AiiDA-DDEC plugin'

_cell_length_a        11.77893
_cell_length_b        11.99674
_cell_length_c        12.43537

_cell_angle_alpha     106.51728
_cell_angle_beta     105.87322
_cell_angle_gamma     115.27754

_symmetry_space_group_name_Hall 'P 1'
_symmetry_space_group_name_H-M  'P 1'

loop_
_symmetry_equiv_pos_as_xyz
 'x,y,z'

loop_
_atom_site_label
_atom_site_type_symbol
_atom_site_fract_x
_atom_site_fract_y
_atom_site_fract_z
_atom_site_charge
Ag         Ag      0.59203   0.76406   0.39316   0.26103
Ag         Ag      0.27869   0.72617   0.12595   0.26456
Ag         Ag      0.30382   0.62923   0.39340   0.26035
Ag         Ag      0.34699   0.39745   0.12354   0.26310
Ag         Ag      0.40797   0.23595   0.60685   0.26098
Ag         Ag      0.72131   0.27384   0.87405   0.26447
Ag         Ag      0.69618   0.37078   0.60660   0.26038
Ag         Ag      0.65301   0.60256   0.87646   0.26313
H          H       0.39806   0.66135   0.90502   0.09566
H          H       0.72798   0.63655   0.26192   0.10558
H          H       0.77344   0.63386   0.13720   0.09176
H          H       0.97882   0.83478   0.34044   0.12615
H          H       0.87276   0.89672   0.37154   0.11230
H          H       0.91368   0.90000   0.24473   0.11552
H          H       0.51421   0.27286   0.29632   0.09354
H          H       0.76065   0.66939   0.70945   0.09296
H          H       0.72284   0.77152   0.64639   0.08692
H          H       0.98656   0.87223   0.75282   0.12373
H          H       0.95669   0.71827   0.64336   0.12107
H          H       0.92259   0.82893   0.59012   0.11598
H          H       0.00511   0.24271   0.90242   0.09610
H          H       0.03623   0.62556   0.26169   0.10553
H          H       0.86401   0.50213   0.13582   0.09161
H          H       0.86346   0.50441   0.33761   0.12656
H          H       0.00172   0.47470   0.36899   0.11176
H          H       0.83247   0.34293   0.24124   0.11477
H          H       0.28060   0.02128   0.29737   0.09300
H          H       0.44947   0.04066   0.71011   0.09149
H          H       0.42313   0.87448   0.64601   0.08687
H          H       0.26487   0.87972   0.74956   0.12321
H          H       0.18555   0.92439   0.64064   0.12072
H          H       0.16516   0.75968   0.58641   0.11546
H          H       0.60194   0.33865   0.09498   0.09561
H          H       0.27202   0.36346   0.73808   0.10566
H          H       0.22656   0.36615   0.86280   0.09206
H          H       0.02118   0.16522   0.65956   0.12627
H          H       0.12724   0.10329   0.62846   0.11209
H          H       0.08631   0.10001   0.75527   0.11539
H          H       0.48579   0.72715   0.70368   0.09364
H          H       0.23934   0.33062   0.29055   0.09305
H          H       0.27716   0.22849   0.35361   0.08669
H          H       0.01344   0.12778   0.24719   0.12356
H          H       0.04330   0.28174   0.35665   0.12133
H          H       0.07741   0.17108   0.40988   0.11593
H          H       0.99489   0.75729   0.09758   0.09626
H          H       0.96377   0.37445   0.73832   0.10535
H          H       0.13599   0.49788   0.86419   0.09146
H          H       0.13654   0.49560   0.66239   0.12639
H          H      -0.00172   0.52531   0.63101   0.11193
H          H       0.16753   0.65708   0.75876   0.11509
H          H       0.71940   0.97872   0.70263   0.09288
H          H       0.55053   0.95935   0.28989   0.09136
H          H       0.57687   0.12553   0.35399   0.08721
H          H       0.73513   0.12028   0.25045   0.12320
H          H       0.81445   0.07562   0.35936   0.12047
H          H       0.83484   0.24033   0.41359   0.11561
C          C       0.62862   0.69180   0.13794   0.30879
C          C       0.46539   0.67689   0.99445   0.10927
C          C       0.75454   0.69295   0.20757  -0.19641
C          C       0.88772   0.83964   0.29604  -0.35915
C          C       0.66753   0.58225   0.51034   0.31527
C          C       0.55497   0.38083   0.35349   0.10239
C          C       0.76425   0.70463   0.63728  -0.19569
C          C       0.91650   0.78587   0.65692  -0.35458
C          C       0.01001   0.44524   0.13661   0.30671
C          C       0.02808   0.31651   0.99235   0.10675
C          C       0.95427   0.51393   0.20617  -0.19598
C          C       0.91022   0.45554   0.29340  -0.35814
C          C       0.34255   0.92758   0.51060   0.31635
C          C       0.29785   0.97132   0.35454   0.10329
C          C       0.37275   0.93240   0.63680  -0.19537
C          C       0.23917   0.87027   0.65432  -0.35305
C          C       0.37138   0.30821   0.86207   0.30873
C          C       0.53461   0.32312   0.00555   0.10908
C          C       0.24546   0.30706   0.79243  -0.19647
C          C       0.11228   0.16037   0.70396  -0.35907
C          C       0.33247   0.41776   0.48966   0.31528
C          C       0.44503   0.61918   0.64651   0.10264
C          C       0.23575   0.29537   0.36272  -0.19572
C          C       0.08350   0.21414   0.34308  -0.35456
C          C       0.98999   0.55477   0.86339   0.30661
C          C       0.97192   0.68350   0.00765   0.10688
C          C       0.04573   0.48608   0.79383  -0.19588
C          C       0.08978   0.54447   0.70660  -0.35841
C          C       0.65745   0.07243   0.48940   0.31629
C          C       0.70215   0.02869   0.64546   0.10301
C          C       0.62725   0.06761   0.36320  -0.19555
C          C       0.76083   0.12974   0.34568  -0.35295
N          N       0.54864   0.71355   0.18863  -0.24417
N          N       0.44314   0.70415   0.09604  -0.18304
N          N       0.58010   0.66895   0.01610  -0.34465
N          N       0.59350   0.58659   0.41016  -0.23013
N          N       0.52061   0.45671   0.30879  -0.18649
N          N       0.64650   0.45416   0.47834  -0.34631
N          N       0.14120   0.47387   0.18786  -0.24400
N          N       0.15294   0.39049   0.09477  -0.18087
N          N       0.93539   0.34641   0.01392  -0.34391
N          N       0.31908   0.82390   0.41118  -0.23045
N          N       0.29009   0.85174   0.31034  -0.18642
N          N       0.32996   0.02283   0.47865  -0.34735
N          N       0.45136   0.28646   0.81137  -0.24413
N          N       0.55686   0.29586   0.90396  -0.18318
N          N       0.41989   0.33105   0.98390  -0.34443
N          N       0.40650   0.41341   0.58985  -0.23063
N          N       0.47939   0.54330   0.69122  -0.18632
N          N       0.35350   0.54585   0.52167  -0.34606
N          N       0.85879   0.52614   0.81215  -0.24419
N          N       0.84706   0.60952   0.90523  -0.18053
N          N       0.06461   0.65360   0.98608  -0.34404
N          N       0.68092   0.17610   0.58883  -0.23019
N          N       0.70991   0.14827   0.68967  -0.18613
N          N       0.67004   0.97718   0.52136  -0.34752

