data_crystal

_audit_creation_method 'AiiDA-DDEC plugin'

_cell_length_a         4.44426
_cell_length_b        12.60303
_cell_length_c        26.15938

_cell_angle_alpha     90.06114
_cell_angle_beta     89.93664
_cell_angle_gamma     90.00864

_symmetry_space_group_name_Hall 'P 1'
_symmetry_space_group_name_H-M  'P 1'

loop_
_symmetry_equiv_pos_as_xyz
 'x,y,z'

loop_
_atom_site_label
_atom_site_type_symbol
_atom_site_fract_x
_atom_site_fract_y
_atom_site_fract_z
_atom_site_charge
Cd         Cd      0.70492   0.86107   0.37313   0.88336
Cd         Cd      0.28897   0.36130   0.62687   0.88635
Cd         Cd      0.79791   0.86036   0.87400   0.88143
Cd         Cd      0.21218   0.36097   0.12646   0.88580
H          H       0.05023   0.97155   0.47263   0.10576
H          H       0.93928   0.11684   0.53711   0.13082
H          H       0.16868   0.20142   0.44864   0.13040
H          H       0.33108   0.06555   0.38345   0.10691
H          H       0.17091   0.66268   0.36764   0.10741
H          H       0.31708   0.51636   0.30690   0.12842
H          H       0.54293   0.59317   0.21748   0.13144
H          H       0.43585   0.74446   0.27855   0.09915
H          H       0.94535   0.47208   0.52778   0.10589
H          H       0.05969   0.61598   0.46290   0.13080
H          H       0.82792   0.70145   0.55173   0.12869
H          H       0.66341   0.56645   0.61712   0.10607
H          H       0.82619   0.16167   0.63242   0.10627
H          H       0.67920   0.01718   0.69430   0.12943
H          H       0.45481   0.09553   0.78284   0.13182
H          H       0.56197   0.24543   0.72098   0.09851
H          H       0.45106   0.97149   0.97282   0.10541
H          H       0.56078   0.11766   0.03689   0.13053
H          H       0.33239   0.20144   0.94823   0.13007
H          H       0.17226   0.06433   0.88356   0.10631
H          H       0.33300   0.66295   0.86832   0.10732
H          H       0.18244   0.51828   0.80704   0.12972
H          H       0.95562   0.59467   0.71713   0.13197
H          H       0.06570   0.74537   0.77856   0.09911
H          H       0.55479   0.47179   0.02843   0.10573
H          H       0.44055   0.61583   0.96359   0.13081
H          H       0.67106   0.70087   0.05259   0.12894
H          H       0.83559   0.56568   0.11790   0.10664
H          H       0.67553   0.16241   0.13167   0.10672
H          H       0.82131   0.01733   0.19318   0.12974
H          H       0.04613   0.09576   0.28219   0.13233
H          H       0.93902   0.24569   0.22041   0.09875
C          C       0.87261   0.02930   0.46673   0.08207
C          C       0.79037   0.10148   0.50505  -0.12732
C          C       0.53065   0.16113   0.50055  -0.00742
C          C       0.35776   0.14927   0.45593  -0.13233
C          C       0.45666   0.07804   0.41855   0.07951
C          C       0.44357   0.23939   0.54102   0.54091
C          C       0.03749   0.64529   0.33376   0.07553
C          C       0.12830   0.56803   0.29856  -0.12690
C          C       0.95265   0.55215   0.25454  -0.01166
C          C       0.69380   0.61177   0.24886  -0.12457
C          C       0.61720   0.68847   0.28527   0.08206
C          C       0.04041   0.47240   0.21496   0.53924
C          C       0.12297   0.52981   0.53368   0.08223
C          C       0.20733   0.60099   0.49514  -0.12699
C          C       0.46772   0.66024   0.49963  -0.00878
C          C       0.63932   0.64908   0.54442  -0.13095
C          C       0.53838   0.57872   0.58198   0.07936
C          C       0.55641   0.73759   0.45900   0.54434
C          C       0.95922   0.14514   0.66640   0.07932
C          C       0.86833   0.06905   0.70207  -0.13018
C          C       0.04449   0.05422   0.74606  -0.01060
C          C       0.30362   0.11383   0.75147  -0.12488
C          C       0.38001   0.18949   0.71463   0.08171
C          C       0.95750   0.97433   0.78546   0.53936
C          C       0.62861   0.02924   0.96679   0.08316
C          C       0.70998   0.10196   0.00486  -0.12788
C          C       0.96976   0.16158   0.00019  -0.00688
C          C       0.14329   0.14933   0.95564  -0.13237
C          C       0.04571   0.07739   0.91854   0.08045
C          C       0.05647   0.23980   0.04060   0.54203
C          C       0.46493   0.64604   0.83419   0.07595
C          C       0.37179   0.56970   0.79877  -0.12869
C          C       0.54702   0.55368   0.75466  -0.00952
C          C       0.80612   0.61314   0.74876  -0.12524
C          C       0.88463   0.68928   0.78532   0.08047
C          C       0.45855   0.47309   0.71552   0.53899
C          C       0.37734   0.52961   0.03436   0.08286
C          C       0.29305   0.60085   0.99590  -0.12778
C          C       0.03254   0.66002   0.00053  -0.00959
C          C       0.86024   0.64870   0.04529  -0.12962
C          C       0.96099   0.57829   0.08277   0.07812
C          C       0.94378   0.73748   0.96004   0.54357
C          C       0.54181   0.14551   0.16557   0.07872
C          C       0.63236   0.06919   0.20110  -0.13140
C          C       0.45581   0.05412   0.24509  -0.00740
C          C       0.19692   0.11379   0.25067  -0.12735
C          C       0.12047   0.18956   0.21394   0.08272
C          C       0.54285   0.97426   0.28448   0.53986
N          N       0.70222   0.01680   0.42390  -0.25074
N          N       0.79458   0.70659   0.32674  -0.23891
N          N       0.29209   0.51785   0.57668  -0.25145
N          N       0.20270   0.20646   0.67304  -0.23876
N          N       0.80024   0.01613   0.92411  -0.25072
N          N       0.70897   0.70680   0.82714  -0.23636
N          N       0.20765   0.51762   0.07735  -0.24995
N          N       0.29810   0.20661   0.17233  -0.23847
O          O       0.20119   0.29101   0.53534  -0.53428
O          O       0.62193   0.24865   0.57929  -0.56741
O          O       0.86202   0.46068   0.17660  -0.57346
O          O       0.28591   0.42317   0.22072  -0.53043
O          O       0.79902   0.78905   0.46464  -0.53497
O          O       0.37832   0.74636   0.42066  -0.56767
O          O       0.13709   0.96276   0.82367  -0.57251
O          O       0.71302   0.92482   0.77949  -0.53084
O          O       0.29949   0.29124   0.03520  -0.53465
O          O       0.87704   0.24896   0.07876  -0.56766
O          O       0.63702   0.46076   0.67714  -0.57412
O          O       0.21378   0.42367   0.72180  -0.53024
O          O       0.70114   0.78884   0.96581  -0.53469
O          O       0.12225   0.74644   0.92169  -0.56789
O          O       0.36355   0.96294   0.32282  -0.57416
O          O       0.78705   0.92460   0.27838  -0.53073

