data_crystal

_audit_creation_method 'AiiDA-DDEC plugin'

_cell_length_a        15.30996
_cell_length_b        15.34357
_cell_length_c        16.84437

_cell_angle_alpha     67.79099
_cell_angle_beta     67.99081
_cell_angle_gamma     61.95662

_symmetry_space_group_name_Hall 'P 1'
_symmetry_space_group_name_H-M  'P 1'

loop_
_symmetry_equiv_pos_as_xyz
 'x,y,z'

loop_
_atom_site_label
_atom_site_type_symbol
_atom_site_fract_x
_atom_site_fract_y
_atom_site_fract_z
_atom_site_charge
Co         Co      0.71859   0.56407   0.60966   1.26612
Co         Co      0.42987   0.28995   0.89429   1.35878
Co         Co      0.33994   0.65884   0.24981   1.37764
Co         Co      0.56319   0.71954   0.10895   1.23468
Co         Co      0.65908   0.33994   0.75133   1.38567
Co         Co      0.29035   0.42964   0.39410   1.25073
H          H       0.37923   0.02953   0.05009   0.14489
H          H       0.65934   0.57256   0.39044   0.14126
H          H       0.60100   0.30161   0.55514   0.13944
H          H       0.97250   0.61808   0.45058   0.14827
H          H       0.25852   0.09320   0.64431   0.14590
H          H       0.61827   0.97229   0.95043   0.14171
H          H       0.16711   0.94183   0.28644   0.13894
H          H       0.57247   0.65944   0.89031   0.14200
H          H       0.34165   0.42804   0.60896   0.14147
H          H       0.90442   0.74274   0.85684   0.14457
H          H       0.39623   0.70014   0.44355   0.13786
H          H       0.30159   0.60072   0.05440   0.13536
H          H       0.94208   0.16669   0.78655   0.14038
H          H       0.70001   0.39636   0.94442   0.13794
H          H       0.02908   0.37957   0.55007   0.14491
H          H       0.74254   0.90481   0.35664   0.14550
H          H       0.83114   0.05891   0.71422   0.13904
H          H       0.09356   0.25844   0.14414   0.14556
H          H       0.46113   0.49673   0.81702   0.11762
H          H       0.05851   0.83154   0.21427   0.14035
H          H       0.50201   0.54243   0.68167   0.12304
H          H       0.42788   0.34158   0.10932   0.14295
H          H       0.49672   0.46104   0.31697   0.11869
H          H       0.54233   0.50208   0.18159   0.12034
C          C       0.43817   0.39120   0.73424   0.58858
C          C       0.42193   0.47671   0.65509  -0.03354
C          C       0.51523   0.63024   0.90149  -0.06108
C          C       0.25856   0.23714   0.01387   0.57447
C          C       0.00034   0.81063   0.26950  -0.07144
C          C       0.28094   0.97465   0.16937  -0.04236
C          C       0.84959   0.75964   0.41175  -0.03494
C          C       0.86554   0.35226   0.67955   0.66225
C          C       0.00068   0.18701   0.73143  -0.07232
C          C       0.17868   0.14489   0.65201  -0.06866
C          C       0.13673   0.64454   0.32029   0.65321
C          C       0.37350   0.54413   0.93645  -0.04269
C          C       0.85268   0.82250   0.84922  -0.06823
C          C       0.30667   0.05056   0.09824  -0.06818
C          C       0.63792   0.43438   0.47799  -0.04424
C          C       0.39087   0.43813   0.23389   0.60505
C          C       0.45322   0.53760   0.86100  -0.09542
C          C       0.76652   0.73653   0.48724   0.56886
C          C       0.71599   0.02726   0.83091  -0.03932
C          C       0.82232   0.85295   0.34921  -0.06764
C          C       0.87735   0.89850   0.77823  -0.04675
C          C       0.30893   0.48364   0.96167   0.58367
C          C       0.35187   0.86557   0.17881   0.62597
C          C       0.45174   0.63036   0.56280  -0.04872
C          C       0.67694   0.43264   0.54822   0.60006
C          C       0.48576   0.37015   0.09776  -0.05790
C          C       0.95151   0.69090   0.40246  -0.07048
C          C       0.43409   0.63814   0.97738  -0.04755
C          C       0.69089   0.95141   0.90235  -0.07042
C          C       0.40099   0.63975   0.50428  -0.06250
C          C       0.56769   0.36003   0.02264  -0.04708
C          C       0.50871   0.69587   0.53967   0.52787
C          C       0.64462   0.13691   0.82089   0.62188
C          C       0.37015   0.48589   0.59748  -0.05911
C          C       0.43219   0.67749   0.04726   0.63062
C          C       0.12048   0.10278   0.22281  -0.04672
C          C       0.12979   0.02293   0.79021   0.49387
C          C       0.47655   0.42195   0.15512  -0.03983
C          C       0.48410   0.30884   0.46182   0.55928
C          C       0.59640   0.36287   0.49499  -0.07020
C          C       0.57003   0.31861   0.95425   0.62784
C          C       0.23815   0.15233   0.08932  -0.02864
C          C       0.73625   0.76658   0.98731   0.55925
C          C       0.53773   0.45314   0.36104  -0.10377
C          C       0.63007   0.51539   0.40170  -0.06746
C          C       0.56416   0.60903   0.26338   0.57500
C          C       0.02711   0.71617   0.33088  -0.04496
C          C       0.97441   0.87176   0.71127   0.49222
C          C       0.46087   0.54985   0.63795  -0.08382
C          C       0.81019   0.00071   0.76948  -0.07378
C          C       0.15207   0.23809   0.58933  -0.03194
C          C       0.36274   0.59632   0.99436  -0.06915
C          C       0.63969   0.40096   0.00500  -0.06298
C          C       0.75960   0.84951   0.91163  -0.03749
C          C       0.36022   0.56769   0.52196  -0.04685
C          C       0.10291   0.11998   0.72293  -0.04498
C          C       0.54427   0.37355   0.43680  -0.04294
C          C       0.05025   0.30676   0.59821  -0.06560
C          C       0.02362   0.12927   0.28999   0.49274
C          C       0.18734   0.00057   0.23137  -0.07571
C          C       0.87119   0.97511   0.21105   0.49265
C          C       0.57941   0.52453   0.34308  -0.03260
C          C       0.63023   0.45175   0.06329  -0.04442
C          C       0.97458   0.28094   0.66951  -0.04706
C          C       0.60926   0.56400   0.76401   0.58978
C          C       0.23686   0.25861   0.51399   0.57571
C          C       0.89807   0.87790   0.27822  -0.04793
C          C       0.31925   0.56970   0.45326   0.60192
C          C       0.52458   0.57931   0.84326  -0.03582
C          C       0.69598   0.50836   0.04027   0.53768
C          C       0.14519   0.17870   0.15190  -0.06719
C          C       0.54967   0.46091   0.13812  -0.08783
O          O       0.93669   0.00903   0.15151  -0.28203
O          O       0.79531   0.64213   0.53968  -0.54939
O          O       0.79990   0.31683   0.73780  -0.59959
O          O       0.96409   0.21984   0.29639  -0.26944
O          O       0.99006   0.06348   0.34934  -0.28093
O          O       0.55280   0.15938   0.86509  -0.51894
O          O       0.49741   0.62561   0.22263  -0.60226
O          O       0.67867   0.36215   0.61860  -0.54679
O          O       0.22063   0.96351   0.79657  -0.26874
O          O       0.50048   0.28502   0.97319  -0.53630
O          O       0.50764   0.70248   0.03146  -0.56508
O          O       0.19199   0.32198  -0.00140  -0.37896
O          O       0.35543   0.21061   0.96564  -0.58214
O          O       0.62631   0.49699   0.72365  -0.66582
O          O       0.68558   0.20038   0.76550  -0.54334
O          O       0.32338   0.63680   0.38051  -0.55900
O          O       0.38386   0.33906   0.77111  -0.46407
O          O       0.37328   0.50636   0.27308  -0.65036
O          O       0.44201   0.84599   0.12951  -0.54239
O          O       0.63723   0.32283   0.88166  -0.59293
O          O       0.70148   0.50827   0.53226  -0.52362
O          O       0.68034   0.56507   0.08924  -0.44221
O          O       0.15937   0.55271   0.36462  -0.54518
O          O       0.33871   0.38390   0.27060  -0.46338
O          O       0.00852   0.93711   0.65177  -0.28219
O          O       0.61653   0.66355   0.22650  -0.44025
O          O       0.84543   0.44245   0.63036  -0.59041
O          O       0.32160   0.19184   0.49901  -0.37910
O          O       0.42424   0.33472   0.40948  -0.47363
O          O       0.06436   0.98890   0.84963  -0.28073
O          O       0.31647   0.79968   0.23636  -0.51884
O          O       0.76744   0.50606   0.97183  -0.30462
O          O       0.66359   0.61651   0.72697  -0.47844
O          O       0.50647   0.37378   0.77362  -0.61640
O          O       0.48946   0.23710   0.52782  -0.37689
O          O       0.03366   0.78097   0.70533  -0.27016
O          O       0.50621   0.76725   0.47089  -0.28585
O          O       0.64228   0.79567   0.03927  -0.52551
O          O       0.23725   0.48886   0.02744  -0.37631
O          O       0.56578   0.68015   0.58853  -0.39820
O          O       0.28624   0.49961   0.47253  -0.47631
O          O       0.20019   0.68521   0.26426  -0.60599
O          O       0.33503   0.42407   0.90931  -0.57582
O          O       0.36186   0.67908   0.11743  -0.57662
O          O       0.78035   0.03465   0.20478  -0.27152
O          O       0.21069   0.35545   0.46550  -0.54107
O          O       0.79933   0.67848   0.00002  -0.34273
O          O       0.67874   0.79951   0.49979  -0.35134

