data_crystal

_audit_creation_method 'AiiDA-DDEC plugin'

_cell_length_a        11.56251
_cell_length_b        11.56227
_cell_length_c        18.90044

_cell_angle_alpha     94.82421
_cell_angle_beta     94.83520
_cell_angle_gamma     96.88123

_symmetry_space_group_name_Hall 'P 1'
_symmetry_space_group_name_H-M  'P 1'

loop_
_symmetry_equiv_pos_as_xyz
 'x,y,z'

loop_
_atom_site_label
_atom_site_type_symbol
_atom_site_fract_x
_atom_site_fract_y
_atom_site_fract_z
_atom_site_charge
Cu         Cu      0.91231   0.02520   0.52629   0.91115
Cu         Cu      0.97479   0.08769   0.97370   0.91102
Cu         Cu      0.08769   0.97480   0.47371   0.91118
Cu         Cu      0.02521   0.91231   0.02630   0.91099
H          H       0.78509   0.23286   0.36562   0.12698
H          H       0.67275   0.70248   0.47317   0.12070
H          H       0.56534   0.51375   0.41499   0.11364
H          H       0.85676   0.46406   0.29336   0.11114
H          H       0.54505   0.37525   0.30153   0.10565
H          H       0.63357   0.29512   0.35286   0.10733
H          H       0.96452   0.65171   0.35300   0.12574
H          H       0.76712   0.21493   0.13437   0.12698
H          H       0.29749   0.32726   0.02681   0.12085
H          H       0.48623   0.43467   0.08501   0.11367
H          H       0.53597   0.14323   0.20665   0.11116
H          H       0.62474   0.45496   0.19845   0.10575
H          H       0.70488   0.36644   0.14715   0.10729
H          H       0.34830   0.03547   0.14701   0.12596
H          H       0.21491   0.76714   0.63438   0.12697
H          H       0.32725   0.29751   0.52683   0.12072
H          H       0.43466   0.48625   0.58501   0.11363
H          H       0.14324   0.53594   0.70664   0.11111
H          H       0.45495   0.62474   0.69847   0.10574
H          H       0.36643   0.70488   0.64714   0.10726
H          H       0.03548   0.34829   0.64700   0.12569
H          H       0.23289   0.78507   0.86563   0.12702
H          H       0.70251   0.67274   0.97319   0.12089
H          H       0.51377   0.56533   0.91499   0.11377
H          H       0.46403   0.85677   0.79335   0.11106
H          H       0.37526   0.54504   0.80155   0.10578
H          H       0.29513   0.63356   0.85285   0.10730
H          H       0.65170   0.96453   0.85299   0.12585
H          H       0.99005   0.00996   0.25001   0.13755
H          H       0.00996   0.99004   0.74999   0.13752
C          C       0.80916   0.19944   0.31424  -0.20805
C          C       0.88971   0.11832   0.31385  -0.00901
C          C       0.89005   0.80148   0.44951   0.57997
C          C       0.70431   0.47608   0.35050   0.09401
C          C       0.82544   0.68800   0.41661  -0.04183
C          C       0.71258   0.64914   0.43422  -0.08400
C          C       0.65309   0.54371   0.40154  -0.16495
C          C       0.81675   0.51548   0.33316  -0.14694
C          C       0.63675   0.36217   0.31491  -0.12219
C          C       0.87720   0.62029   0.36613  -0.08188
C          C       0.93413   0.07895   0.38315   0.59370
C          C       0.80055   0.19085   0.18576  -0.20801
C          C       0.88168   0.11029   0.18615  -0.00905
C          C       0.19851   0.10995   0.05048   0.57990
C          C       0.52391   0.29569   0.14950   0.09398
C          C       0.31200   0.17456   0.08339  -0.04206
C          C       0.35084   0.28743   0.06577  -0.08412
C          C       0.45628   0.34692   0.09846  -0.16486
C          C       0.48453   0.18324   0.16685  -0.14699
C          C       0.63783   0.36326   0.18509  -0.12220
C          C       0.37972   0.12280   0.13387  -0.08202
C          C       0.92104   0.06588   0.11685   0.59358
C          C       0.19084   0.80056   0.68576  -0.20789
C          C       0.11029   0.88168   0.68615  -0.00907
C          C       0.10995   0.19852   0.55049   0.57992
C          C       0.29569   0.52391   0.64950   0.09392
C          C       0.17456   0.31200   0.58339  -0.04197
C          C       0.28743   0.35086   0.56578  -0.08391
C          C       0.34692   0.45629   0.59846  -0.16483
C          C       0.18325   0.48451   0.66684  -0.14696
C          C       0.36325   0.63783   0.68509  -0.12209
C          C       0.12281   0.37971   0.63387  -0.08182
C          C       0.06587   0.92105   0.61685   0.59365
C          C       0.19946   0.80915   0.81424  -0.20801
C          C       0.11833   0.88971   0.81385  -0.00901
C          C       0.80149   0.89004   0.94952   0.57995
C          C       0.47609   0.70431   0.85050   0.09406
C          C       0.68801   0.82544   0.91661  -0.04211
C          C       0.64916   0.71257   0.93423  -0.08403
C          C       0.54373   0.65308   0.90155  -0.16496
C          C       0.51547   0.81676   0.83315  -0.14701
C          C       0.36218   0.63673   0.81491  -0.12221
C          C       0.62028   0.87720   0.86613  -0.08196
C          C       0.07896   0.93412   0.88315   0.59360
C          C       0.76252   0.23748   0.25000   0.17674
C          C       0.92730   0.07270   0.25000  -0.14474
C          C       0.23748   0.76252   0.75000   0.17669
C          C       0.07270   0.92730   0.75000  -0.14484
N          N       0.68224   0.31778   0.25000  -0.08762
N          N       0.31777   0.68222   0.75000  -0.08770
O          O       0.86882   0.08641   0.43451  -0.54860
O          O       0.83363   0.86900   0.48688  -0.54115
O          O      -0.00244   0.82321   0.43714  -0.54622
O          O       0.03329   0.03979   0.38558  -0.53623
O          O       0.91358   0.13120   0.06548  -0.54843
O          O       0.13099   0.16638   0.01311  -0.54095
O          O       0.17679   0.00244   0.06286  -0.54618
O          O       0.96020   0.96673   0.11443  -0.53616
O          O       0.13118   0.91359   0.56549  -0.54853
O          O       0.16638   0.13100   0.51312  -0.54103
O          O       0.00244   0.17678   0.56286  -0.54631
O          O       0.96671   0.96021   0.61442  -0.53624
O          O       0.08642   0.86880   0.93452  -0.54831
O          O       0.86901   0.83362   0.98689  -0.54086
O          O       0.82321  -0.00244   0.93714  -0.54631
O          O       0.03980   0.03327   0.88557  -0.53629

