data_crystal

_audit_creation_method 'AiiDA-DDEC plugin'

_cell_length_a        13.25126
_cell_length_b        15.20282
_cell_length_c        15.21216

_cell_angle_alpha     112.03349
_cell_angle_beta     106.91399
_cell_angle_gamma     106.91530

_symmetry_space_group_name_Hall 'P 1'
_symmetry_space_group_name_H-M  'P 1'

loop_
_symmetry_equiv_pos_as_xyz
 'x,y,z'

loop_
_atom_site_label
_atom_site_type_symbol
_atom_site_fract_x
_atom_site_fract_y
_atom_site_fract_z
_atom_site_charge
Zn         Zn      0.77299   0.52014   0.80511   0.65572
Zn         Zn      0.25274   0.28546   0.47961   0.65636
Zn         Zn      0.96851   0.19430   0.71478   0.65529
Zn         Zn      0.22701   0.47986   0.19489   0.65570
Zn         Zn      0.74726   0.71454   0.52039   0.65635
Zn         Zn      0.03150   0.80570   0.28522   0.65525
H          H       0.98605   0.48059   0.71827   0.13498
H          H       0.05993   0.41033   0.75455   0.12662
H          H       0.09850   0.51956   0.94634   0.06447
H          H       0.16887   0.59335   0.89604   0.07994
H          H       0.17117   0.75624   0.00917   0.07420
H          H       0.12463   0.68492   0.07111   0.06946
H          H       0.07560   0.83867   0.10652   0.12443
H          H       0.98696   0.77977   0.96772   0.12130
H          H       0.50505   0.23739   0.51884   0.13613
H          H       0.64945   0.34450   0.58951   0.12639
H          H       0.57930   0.42718   0.48116   0.06481
H          H       0.57529   0.30247   0.40692   0.07986
H          H       0.41490   0.25279   0.24410   0.07431
H          H       0.43995   0.38646   0.31572   0.06918
H          H       0.23686   0.26764   0.16158   0.12505
H          H       0.20676   0.18742   0.21967   0.12147
H          H       0.26788   0.28199   0.76242   0.13582
H          H       0.30518   0.24514   0.65573   0.12732
H          H       0.15169   0.05337   0.57282   0.06441
H          H       0.27287   0.10456   0.69727   0.08056
H          H       0.16253   0.99185   0.74725   0.07499
H          H       0.05332   0.92882   0.61376   0.06904
H          H       0.96917   0.89407   0.73192   0.12408
H          H       0.02004   0.03291   0.81268   0.12228
H          H       0.01395   0.51941   0.28173   0.13513
H          H       0.94008   0.58967   0.24546   0.12649
H          H       0.90151   0.48044   0.05367   0.06441
H          H       0.83113   0.40665   0.10396   0.07989
H          H       0.82883   0.24376   0.99083   0.07423
H          H       0.87537   0.31508   0.92889   0.06936
H          H       0.92440   0.16133   0.89348   0.12439
H          H       0.01304   0.22023   0.03228   0.12141
H          H       0.49496   0.76260   0.48116   0.13610
H          H       0.35055   0.65550   0.41049   0.12624
H          H       0.42070   0.57282   0.51884   0.06488
H          H       0.42471   0.69753   0.59308   0.07982
H          H       0.58510   0.74721   0.75590   0.07416
H          H       0.56005   0.61354   0.68428   0.06916
H          H       0.76315   0.73236   0.83842   0.12509
H          H       0.79325   0.81258   0.78033   0.12140
H          H       0.73212   0.71801   0.23758   0.13574
H          H       0.69482   0.75486   0.34428   0.12725
H          H       0.84831   0.94663   0.42718   0.06453
H          H       0.72713   0.89544   0.30273   0.08044
H          H       0.83748   0.00814   0.25275   0.07483
H          H       0.94668   0.07118   0.38624   0.06907
H          H       0.03083   0.10593   0.26809   0.12392
H          H       0.97996   0.96709   0.18733   0.12224
C          C       0.89520   0.37422   0.75910   0.32026
C          C       0.00732   0.45157   0.77418  -0.28125
C          C       0.08222   0.54577   0.88732   0.04714
C          C       0.09295   0.70443   0.00899   0.03570
C          C       0.01869   0.76252   0.03167  -0.27043
C          C       0.91604   0.69978   0.04035   0.30093
C          C       0.52065   0.38490   0.62547   0.32093
C          C       0.55543   0.32261   0.54827  -0.28103
C          C       0.53645   0.34168   0.45446   0.04556
C          C       0.38852   0.30458   0.29581   0.03706
C          C       0.25600   0.26893   0.23751  -0.27067
C          C       0.21613   0.34052   0.30017   0.30150
C          C       0.13594   0.24067   0.61497   0.32080
C          C       0.23294   0.22578   0.67730  -0.28153
C          C       0.19468   0.11274   0.65820   0.04571
C          C       0.08412   0.99140   0.69549   0.03549
C          C       0.98740   0.96899   0.73112  -0.27003
C          C       0.87585   0.95988   0.65962   0.29978
C          C       0.10481   0.62577   0.24090   0.32025
C          C       0.99269   0.54843   0.22582  -0.28125
C          C       0.91778   0.45423   0.11268   0.04703
C          C       0.90705   0.29557   0.99101   0.03548
C          C       0.98131   0.23748   0.96834  -0.27035
C          C       0.08396   0.30022   0.95965   0.30106
C          C       0.47935   0.61509   0.37453   0.32088
C          C       0.44457   0.67739   0.45174  -0.28100
C          C       0.46356   0.65831   0.54554   0.04546
C          C       0.61148   0.69542   0.70420   0.03725
C          C       0.74400   0.73107   0.76249  -0.27049
C          C       0.78387   0.65947   0.69983   0.30126
C          C       0.86406   0.75933   0.38503   0.32077
C          C       0.76707   0.77422   0.32270  -0.28142
C          C       0.80533   0.88726   0.34180   0.04550
C          C       0.91589   0.00860   0.30452   0.03549
C          C       0.01261   0.03101   0.26888  -0.26997
C          C       0.12416   0.04012   0.34039   0.29967
N          N       0.80625   0.39409   0.77177  -0.26784
N          N       0.72244   0.30208   0.75266  -0.08378
N          N       0.75901   0.22935   0.72916  -0.07215
N          N       0.86685   0.27232   0.73225  -0.27192
N          N       0.81800   0.61200   0.95938  -0.26525
N          N       0.74885   0.57687   0.00216  -0.05814
N          N       0.80250   0.64125   0.10465  -0.05994
N          N       0.90759   0.71966   0.13099  -0.27212
N          N       0.41188   0.37791   0.60571  -0.26645
N          N       0.42028   0.45070   0.69791  -0.08415
N          N       0.52966   0.49983   0.77069  -0.07146
N          N       0.59429   0.45993   0.72753  -0.27057
N          N       0.20567   0.34744   0.38767  -0.26635
N          N       0.17163   0.42548   0.42262  -0.05689
N          N       0.16125   0.46361   0.35848  -0.05987
N          N       0.18809   0.41140   0.28036  -0.27391
N          N       0.03434   0.22795   0.62216  -0.26609
N          N       0.96969   0.24726   0.54962  -0.08379
N          N       0.02971   0.27077   0.50046  -0.07147
N          N       0.13434   0.26748   0.54005  -0.27173
N          N       0.85859   0.04048   0.65261  -0.26427
N          N       0.74645   0.99719   0.57445  -0.05773
N          N       0.69771   0.89470   0.53632  -0.05981
N          N       0.77668   0.86888   0.58868  -0.27354
N          N       0.19376   0.60591   0.22824  -0.26780
N          N       0.27756   0.69792   0.24735  -0.08353
N          N       0.24099   0.77065   0.27084  -0.07232
N          N       0.13316   0.72768   0.26776  -0.27197
N          N       0.18201   0.38800   0.04062  -0.26524
N          N       0.25115   0.42313  -0.00216  -0.05808
N          N       0.19750   0.35875   0.89536  -0.05987
N          N       0.09242   0.28034   0.86901  -0.27231
N          N       0.58812   0.62209   0.39430  -0.26627
N          N       0.57972   0.54930   0.30210  -0.08396
N          N       0.47034   0.50017   0.22932  -0.07153
N          N       0.40572   0.54007   0.27248  -0.27074
N          N       0.79433   0.65256   0.61233  -0.26648
N          N       0.82838   0.57452   0.57738  -0.05699
N          N       0.83876   0.53639   0.64152  -0.05960
N          N       0.81191   0.58860   0.71965  -0.27367
N          N       0.96567   0.77205   0.37784  -0.26627
N          N       0.03032   0.75274   0.45038  -0.08358
N          N       0.97029   0.72923   0.49955  -0.07118
N          N       0.86567   0.73252   0.45995  -0.27179
N          N       0.14141   0.95952   0.34740  -0.26425
N          N       0.25355   0.00281   0.42555  -0.05746
N          N       0.30229   0.10530   0.46369  -0.05960
N          N       0.22333   0.13112   0.41133  -0.27372
O          O       0.02160   0.60997   0.90737  -0.25508
O          O       0.41160   0.29750   0.39002  -0.25569
O          O       0.11430   0.09275   0.70250  -0.25446
O          O       0.97840   0.39003   0.09263  -0.25482
O          O       0.58841   0.70250   0.60998  -0.25570
O          O       0.88570   0.90725   0.29751  -0.25430

