data_crystal

_audit_creation_method 'AiiDA-DDEC plugin'

_cell_length_a        10.45192
_cell_length_b        14.80713
_cell_length_c        18.68642

_cell_angle_alpha     89.97410
_cell_angle_beta     90.02543
_cell_angle_gamma     101.05064

_symmetry_space_group_name_Hall 'P 1'
_symmetry_space_group_name_H-M  'P 1'

loop_
_symmetry_equiv_pos_as_xyz
 'x,y,z'

loop_
_atom_site_label
_atom_site_type_symbol
_atom_site_fract_x
_atom_site_fract_y
_atom_site_fract_z
_atom_site_charge
Sr         Sr      0.90132   0.66941   0.30160   1.57504
Sr         Sr      0.59843   0.83056   0.80058   1.57405
Sr         Sr      0.09868   0.33059   0.69839   1.57503
Sr         Sr      0.40157   0.16945   0.19942   1.57410
Zn         Zn      0.80311   0.44405   0.18064   0.95450
Zn         Zn      0.69679   0.05682   0.68165   0.95475
Zn         Zn      0.19689   0.55595   0.81935   0.95452
Zn         Zn      0.30321   0.94318   0.31835   0.95488
H          H       0.58232   0.10231   0.07740   0.09855
H          H       0.58042   0.01162   0.96469   0.10479
H          H       0.77836   0.25105   0.85398   0.11271
H          H       0.78645   0.34258   0.96730   0.12338
H          H       0.23358   0.67285   0.26570   0.11044
H          H       0.47172   0.67399   0.27996   0.12066
H          H       0.44595   0.45713   0.12540   0.11566
H          H       0.20367   0.45111   0.11454   0.12218
H          H       0.91759   0.39808   0.57717   0.09837
H          H       0.91980   0.48857   0.46449   0.10463
H          H       0.72168   0.24900   0.35397   0.11145
H          H       0.71383   0.15784   0.46724   0.11927
H          H       0.26629   0.82707   0.76585   0.10966
H          H       0.02820   0.82595   0.77987   0.11983
H          H       0.05418   0.04292   0.62531   0.11703
H          H       0.29651   0.04893   0.61465   0.12187
H          H       0.41768   0.89769   0.92260   0.09873
H          H       0.41958   0.98838   0.03531   0.10506
H          H       0.22164   0.74896   0.14601   0.11248
H          H       0.21355   0.65742   0.03270   0.12052
H          H       0.76642   0.32715   0.73430   0.11039
H          H       0.52828   0.32601   0.72004   0.12059
H          H       0.55405   0.54287   0.87460   0.11571
H          H       0.79634   0.54889   0.88546   0.12230
H          H       0.08241   0.60193   0.42282   0.09826
H          H       0.08020   0.51144   0.53551   0.10446
H          H       0.27833   0.75101   0.64603   0.11151
H          H       0.28617   0.84217   0.53276   0.11956
H          H       0.73371   0.17293   0.23415   0.10974
H          H       0.97180   0.17406   0.22013   0.11991
H          H       0.94582   0.95708   0.37469   0.11688
H          H       0.70349   0.95107   0.38535   0.12177
C          C       0.68133   0.22913   0.02876  -0.03952
C          C       0.62387   0.13537   0.02842  -0.12233
C          C       0.62256   0.08442   0.96586  -0.09635
C          C       0.67527   0.12638   0.90249  -0.03957
C          C       0.73543   0.21956   0.90304  -0.08724
C          C       0.73966   0.27036   0.96606  -0.09539
C          C       0.68014   0.28454   0.09573   0.62233
C          C       0.66495   0.07090   0.83525   0.61766
C          C       0.20443   0.56121   0.18956  -0.03307
C          C       0.27981   0.62477   0.23583  -0.09600
C          C       0.41296   0.62616   0.24332  -0.09207
C          C       0.47283   0.56583   0.20326  -0.03701
C          C       0.39741   0.50290   0.15628  -0.10624
C          C       0.26389   0.49988   0.15004  -0.10366
C          C       0.06064   0.55714   0.18386   0.60652
C          C       0.61603   0.56695   0.21070   0.61776
C          C       0.81898   0.27109   0.52872  -0.03741
C          C       0.87628   0.36486   0.52819  -0.12343
C          C       0.87763   0.41576   0.46552  -0.09740
C          C       0.82498   0.37378   0.40205  -0.03905
C          C       0.76478   0.28068   0.40291  -0.08609
C          C       0.76070   0.22998   0.46598  -0.09288
C          C       0.81913   0.21526   0.59569   0.61687
C          C       0.83559   0.42888   0.33442   0.61652
C          C       0.29548   0.93868   0.68959  -0.03186
C          C       0.22012   0.87507   0.73581  -0.09807
C          C       0.08699   0.87370   0.74320  -0.08875
C          C       0.02725   0.93419   0.70317  -0.03583
C          C       0.10268   0.99709   0.65618  -0.10896
C          C       0.23615   0.00008   0.65002  -0.10253
C          C       0.43922   0.94294   0.68398   0.60630
C          C       0.88420   0.93329   0.71085   0.61869
C          C       0.31867   0.77087   0.97124  -0.03948
C          C       0.37613   0.86464   0.97158  -0.12225
C          C       0.37744   0.91559   0.03414  -0.09649
C          C       0.32473   0.87362   0.09751  -0.03938
C          C       0.26457   0.78045   0.09695  -0.08697
C          C       0.26034   0.72965   0.03394  -0.09334
C          C       0.31986   0.71546   0.90427   0.62245
C          C       0.33505   0.92911   0.16475   0.61752
C          C       0.79557   0.43880   0.81044  -0.03304
C          C       0.72019   0.37524   0.76417  -0.09612
C          C       0.58704   0.37384   0.75668  -0.09206
C          C       0.52717   0.43418   0.79674  -0.03699
C          C       0.60259   0.49711   0.84372  -0.10615
C          C       0.73611   0.50012   0.84996  -0.10374
C          C       0.93936   0.44287   0.81614   0.60657
C          C       0.38397   0.43306   0.78930   0.61789
C          C       0.18102   0.72891   0.47128  -0.03749
C          C       0.12372   0.63515   0.47181  -0.12336
C          C       0.12238   0.58425   0.53448  -0.09746
C          C       0.17502   0.62623   0.59795  -0.03904
C          C       0.23522   0.71933   0.59709  -0.08623
C          C       0.23930   0.77003   0.53402  -0.09282
C          C       0.18088   0.78474   0.40431   0.61679
C          C       0.16442   0.57112   0.66557   0.61659
C          C       0.70452   0.06133   0.31041  -0.03184
C          C       0.77988   0.12494   0.26419  -0.09795
C          C       0.91302   0.12631   0.25680  -0.08832
C          C       0.97275   0.06581   0.29683  -0.03624
C          C       0.89732   0.00292   0.34382  -0.10897
C          C       0.76385  -0.00007   0.34998  -0.10275
C          C       0.56078   0.05706   0.31602   0.60659
C          C       0.11580   0.06671   0.28914   0.61890
O          O       0.59026   0.25958   0.14160  -0.70334
O          O       0.77257   0.35435   0.10182  -0.52816
O          O       0.70841   0.11366   0.77796  -0.54940
O          O       0.61302   0.98582   0.83886  -0.68723
O          O       0.99268   0.48207   0.16010  -0.54039
O          O       0.01425   0.62687   0.20312  -0.67950
O          O       0.66238   0.51355   0.16767  -0.57812
O          O       0.68133   0.61912   0.25718  -0.68564
O          O       0.90744   0.24039   0.64260  -0.70305
O          O       0.72747   0.14486   0.60056  -0.52425
O          O       0.79121   0.38653   0.27709  -0.54930
O          O       0.88902   0.51374   0.33775  -0.68695
O          O       0.50722   0.01879   0.66178  -0.54112
O          O       0.48581   0.87269   0.70162  -0.67912
O          O       0.83840   0.98862   0.66934  -0.57931
O          O       0.81848   0.87931   0.75605  -0.68585
O          O       0.40975   0.74042   0.85840  -0.70320
O          O       0.22743   0.64566   0.89818  -0.52820
O          O       0.29160   0.88634   0.22204  -0.54966
O          O       0.38698   0.01419   0.16114  -0.68690
O          O       0.00732   0.51794   0.83990  -0.54025
O          O       0.98575   0.37314   0.79688  -0.67981
O          O       0.33762   0.48645   0.83232  -0.57815
O          O       0.31867   0.38089   0.74282  -0.68581
O          O       0.09256   0.75962   0.35740  -0.70291
O          O       0.27254   0.85515   0.39944  -0.52418
O          O       0.20879   0.61348   0.72290  -0.54919
O          O       0.11098   0.48627   0.66225  -0.68718
O          O       0.49278   0.98121   0.33821  -0.54168
O          O       0.51419   0.12732   0.29838  -0.67892
O          O       0.16160   0.01139   0.33065  -0.57956
O          O       0.18152   0.12070   0.24395  -0.68567

