data_crystal

_audit_creation_method 'AiiDA-DDEC plugin'

_cell_length_a        17.64055
_cell_length_b        17.64052
_cell_length_c        17.64043

_cell_angle_alpha     97.33912
_cell_angle_beta     97.32946
_cell_angle_gamma     97.32943

_symmetry_space_group_name_Hall 'P 1'
_symmetry_space_group_name_H-M  'P 1'

loop_
_symmetry_equiv_pos_as_xyz
 'x,y,z'

loop_
_atom_site_label
_atom_site_type_symbol
_atom_site_fract_x
_atom_site_fract_y
_atom_site_fract_z
_atom_site_charge
Cu         Cu      0.40493   0.72679   0.40492   0.91052
Cu         Cu      0.45782   0.86064   0.45783   0.91458
Cu         Cu      0.40493   0.40492   0.72680   0.91045
Cu         Cu      0.45782   0.45783   0.86065   0.91467
Cu         Cu      0.72679   0.40493   0.40493   0.91013
Cu         Cu      0.86064   0.45782   0.45783   0.91475
H          H       0.37748   0.73382   0.16489   0.12600
H          H       0.37439   0.76099   0.03023   0.11395
H          H       0.47651   0.99630   0.11363   0.11804
H          H       0.47846   0.96883   0.25000   0.12361
H          H       0.43943   0.77735   0.93993   0.12457
H          H       0.44073   0.69298   0.85643   0.12913
H          H       0.16491   0.37748   0.73382   0.12579
H          H       0.03025   0.37439   0.76099   0.11372
H          H       0.11361   0.47652   0.99632   0.11826
H          H       0.24998   0.47846   0.96883   0.12380
H          H       0.93993   0.43943   0.77735   0.12432
H          H       0.85643   0.44073   0.69298   0.12881
H          H       0.73382   0.16491   0.37749   0.12598
H          H       0.76099   0.03024   0.37439   0.11384
H          H       0.99630   0.11362   0.47652   0.11796
H          H       0.96882   0.24999   0.47846   0.12358
H          H       0.77734   0.93993   0.43944   0.12445
H          H       0.69297   0.85643   0.44073   0.12902
H          H       0.16491   0.73381   0.37748   0.12587
H          H       0.03025   0.76099   0.37439   0.11380
H          H       0.11361   0.99631   0.47652   0.11811
H          H       0.24998   0.96882   0.47847   0.12366
H          H       0.93993   0.77734   0.43944   0.12442
H          H       0.85643   0.69297   0.44073   0.12885
H          H       0.73382   0.37748   0.16491   0.12604
H          H       0.76099   0.37439   0.03024   0.11385
H          H       0.99630   0.47652   0.11362   0.11791
H          H       0.96882   0.47846   0.24999   0.12361
H          H       0.77734   0.43943   0.93994   0.12451
H          H       0.69297   0.44073   0.85644   0.12913
H          H       0.37748   0.16489   0.73383   0.12585
H          H       0.37439   0.03023   0.76099   0.11382
H          H       0.47652   0.11363   0.99631   0.11824
H          H       0.47846   0.25000   0.96883   0.12370
H          H       0.43943   0.93992   0.77735   0.12430
H          H       0.44073   0.85642   0.69299   0.12881
H          H       0.41806   0.61361   0.61362   0.14203
H          H       0.61363   0.41807   0.61363   0.14195
H          H       0.61363   0.61363   0.41807   0.14203
C          C       0.43219   0.83116   0.29611   0.58443
C          C       0.42961   0.84925   0.21571  -0.03693
C          C       0.39991   0.79086   0.15331  -0.08822
C          C       0.39913   0.80633   0.07791  -0.14027
C          C       0.42830   0.88013   0.06284   0.04780
C          C       0.45560   0.93898   0.12562  -0.12028
C          C       0.45660   0.92374   0.20127  -0.08955
C          C       0.43130   0.89531   0.98245   0.20837
C          C       0.43598   0.83451   0.92437  -0.22827
C          C       0.43723   0.70766   0.79827  -0.12162
C          C       0.43061   0.64670   0.73758  -0.02699
C          C       0.43000   0.56638   0.75610   0.58813
C          C       0.29611   0.43219   0.83116   0.58439
C          C       0.21571   0.42961   0.84925  -0.03683
C          C       0.15332   0.39990   0.79086  -0.08849
C          C       0.07792   0.39914   0.80633  -0.13987
C          C       0.06284   0.42831   0.88014   0.04762
C          C       0.12560   0.45561   0.93899  -0.11997
C          C       0.20126   0.45660   0.92374  -0.08987
C          C       0.98244   0.43131   0.89531   0.20791
C          C       0.92437   0.43598   0.83451  -0.22862
C          C       0.79827   0.43723   0.70767  -0.12171
C          C       0.73758   0.43061   0.64670  -0.02725
C          C       0.75610   0.43000   0.56638   0.58810
C          C       0.83115   0.29611   0.43219   0.58447
C          C       0.84925   0.21571   0.42961  -0.03683
C          C       0.79085   0.15332   0.39991  -0.08840
C          C       0.80633   0.07791   0.39914  -0.13995
C          C       0.88013   0.06284   0.42831   0.04784
C          C       0.93898   0.12560   0.45561  -0.11996
C          C       0.92373   0.20126   0.45660  -0.08991
C          C       0.89530   0.98244   0.43131   0.20796
C          C       0.83450   0.92437   0.43598  -0.22793
C          C       0.70766   0.79827   0.43723  -0.12188
C          C       0.64670   0.73758   0.43061  -0.02689
C          C       0.56638   0.75610   0.43000   0.58805
C          C       0.29611   0.83115   0.43219   0.58458
C          C       0.21571   0.84925   0.42961  -0.03683
C          C       0.15332   0.79085   0.39991  -0.08835
C          C       0.07792   0.80633   0.39914  -0.13993
C          C       0.06284   0.88013   0.42831   0.04783
C          C       0.12560   0.93899   0.45561  -0.12004
C          C       0.20126   0.92374   0.45660  -0.08991
C          C       0.98244   0.89530   0.43131   0.20787
C          C       0.92437   0.83451   0.43598  -0.22823
C          C       0.79827   0.70766   0.43723  -0.12172
C          C       0.73758   0.64670   0.43061  -0.02712
C          C       0.75610   0.56638   0.43000   0.58807
C          C       0.83115   0.43219   0.29611   0.58426
C          C       0.84925   0.42961   0.21571  -0.03681
C          C       0.79085   0.39991   0.15332  -0.08844
C          C       0.80633   0.39914   0.07791  -0.13990
C          C       0.88013   0.42831   0.06284   0.04784
C          C       0.93898   0.45561   0.12561  -0.11998
C          C       0.92373   0.45660   0.20126  -0.08991
C          C       0.89530   0.43131   0.98245   0.20813
C          C       0.83450   0.43598   0.92437  -0.22801
C          C       0.70766   0.43723   0.79828  -0.12170
C          C       0.64670   0.43061   0.73759  -0.02684
C          C       0.56638   0.43000   0.75611   0.58791
C          C       0.43219   0.29611   0.83116   0.58449
C          C       0.42961   0.21571   0.84926  -0.03693
C          C       0.39991   0.15331   0.79086  -0.08826
C          C       0.39913   0.07791   0.80634  -0.14028
C          C       0.42830   0.06284   0.88014   0.04763
C          C       0.45560   0.12562   0.93899  -0.12013
C          C       0.45660   0.20127   0.92374  -0.08953
C          C       0.43130   0.98245   0.89532   0.20802
C          C       0.43598   0.92437   0.83452  -0.22824
C          C       0.43723   0.79826   0.70767  -0.12154
C          C       0.43061   0.73757   0.64670  -0.02710
C          C       0.43000   0.75609   0.56638   0.58818
C          C       0.43756   0.84797   0.84798   0.11056
C          C       0.43825   0.78435   0.78436   0.05649
C          C       0.42506   0.66100   0.66101  -0.08949
C          C       0.84797   0.43756   0.84797   0.11085
C          C       0.78435   0.43825   0.78436   0.05654
C          C       0.66101   0.42506   0.66102  -0.08927
C          C       0.84797   0.84797   0.43757   0.11077
C          C       0.78435   0.78435   0.43825   0.05656
C          C       0.66101   0.66101   0.42506  -0.08912
N          N       0.42969   0.96861   0.96862  -0.32997
N          N       0.96860   0.42970   0.96861  -0.32991
N          N       0.96860   0.96860   0.42970  -0.33031
O          O       0.40868   0.76091   0.30329  -0.54930
O          O       0.45797   0.88613   0.35204  -0.54029
O          O       0.45441   0.56015   0.82633  -0.55031
O          O       0.40567   0.51086   0.70093  -0.52899
O          O       0.30329   0.40868   0.76091  -0.54937
O          O       0.35203   0.45797   0.88613  -0.54005
O          O       0.82633   0.45441   0.56015  -0.55055
O          O       0.70092   0.40567   0.51087  -0.52849
O          O       0.76091   0.30329   0.40868  -0.54891
O          O       0.88613   0.35204   0.45797  -0.54046
O          O       0.56014   0.82633   0.45441  -0.55045
O          O       0.51087   0.70093   0.40567  -0.52874
O          O       0.30329   0.76091   0.40868  -0.54926
O          O       0.35203   0.88613   0.45797  -0.54029
O          O       0.82633   0.56015   0.45442  -0.55058
O          O       0.70092   0.51086   0.40568  -0.52854
O          O       0.76091   0.40868   0.30330  -0.54889
O          O       0.88613   0.45796   0.35204  -0.54040
O          O       0.56014   0.45441   0.82634  -0.55022
O          O       0.51087   0.40567   0.70093  -0.52885
O          O       0.40868   0.30329   0.76092  -0.54963
O          O       0.45797   0.35204   0.88614  -0.53993
O          O       0.45441   0.82632   0.56015  -0.55044
O          O       0.40567   0.70092   0.51086  -0.52885

