data_crystal

_audit_creation_method 'AiiDA-DDEC plugin'

_cell_length_a        14.06882
_cell_length_b        14.03994
_cell_length_c        14.60658

_cell_angle_alpha     94.49192
_cell_angle_beta     89.96279
_cell_angle_gamma     120.07304

_symmetry_space_group_name_Hall 'P 1'
_symmetry_space_group_name_H-M  'P 1'

loop_
_symmetry_equiv_pos_as_xyz
 'x,y,z'

loop_
_atom_site_label
_atom_site_type_symbol
_atom_site_fract_x
_atom_site_fract_y
_atom_site_fract_z
_atom_site_charge
Ce         Ce      0.61374   0.65521   0.51616   1.93260
Ce         Ce      0.95858   0.34517   0.98411   1.92964
Ce         Ce      0.38626   0.34479   0.48384   1.93255
Ce         Ce      0.04142   0.65483   0.01589   1.92968
H          H       0.38008   0.71443   0.56556   0.13292
H          H       0.17833   0.42763   0.70991   0.13451
H          H       0.17219   0.72816   0.77746   0.11718
H          H       0.47169   0.90430   0.61128   0.12023
H          H       0.13773   0.81335   0.66969   0.11622
H          H       0.49881   0.07711   0.55215   0.11372
H          H       0.16605   0.98633   0.60995   0.12422
H          H       0.66527   0.28555   0.93459   0.13272
H          H       0.74989   0.57216   0.79016   0.13441
H          H       0.44376   0.27139   0.72264   0.11677
H          H       0.56661   0.09500   0.88868   0.12013
H          H       0.32414   0.18700   0.83139   0.11607
H          H       0.42060   0.92233   0.94810   0.11345
H          H       0.17931   0.01413   0.89135   0.12466
H          H       0.61992   0.28558   0.43444   0.13292
H          H       0.82167   0.57238   0.29009   0.13452
H          H       0.82781   0.27184   0.22254   0.11713
H          H       0.52831   0.09571   0.38873   0.12019
H          H       0.86228   0.18665   0.33031   0.11622
H          H       0.50119   0.92290   0.44785   0.11367
H          H       0.83395   0.01367   0.39005   0.12418
H          H       0.33473   0.71445   0.06542   0.13269
H          H       0.25011   0.42785   0.20984   0.13440
H          H       0.55625   0.72861   0.27736   0.11681
H          H       0.43339   0.90500   0.11132   0.12009
H          H       0.67586   0.81300   0.16861   0.11608
H          H       0.57940   0.07767   0.05190   0.11345
H          H       0.82069   0.98587   0.10865   0.12471
C          C       0.32372   0.50110   0.57699   0.62442
C          C       0.28435   0.56600   0.63353  -0.04238
C          C       0.32102   0.67636   0.61828  -0.11859
C          C       0.20718   0.51370   0.69983  -0.08987
C          C       0.27772   0.73526   0.66735   0.06183
C          C       0.16922   0.57412   0.75289  -0.04793
C          C       0.30180   0.84529   0.64287   0.07750
C          C       0.20396   0.68353   0.73585  -0.11872
C          C       0.09156   0.52585   0.82789   0.64487
C          C       0.40461   0.92192   0.61131  -0.13753
C          C       0.21743   0.87166   0.64507  -0.13702
C          C       0.41999   0.01869   0.57789  -0.08562
C          C       0.23252   0.96802   0.61126  -0.08509
C          C       0.33323   0.04081   0.57471  -0.04551
C          C       0.34599   0.13690   0.52880   0.56067
C          C       0.82227   0.49858   0.92294   0.62439
C          C       0.71805   0.43375   0.86637  -0.04058
C          C       0.64431   0.32339   0.88170  -0.11893
C          C       0.69300   0.48601   0.80024  -0.09059
C          C       0.54207   0.26448   0.83279   0.06049
C          C       0.59470   0.42562   0.74721  -0.04832
C          C       0.45602   0.15454   0.85752   0.07792
C          C       0.52010   0.31613   0.76422  -0.11771
C          C       0.56537   0.47392   0.67223   0.64516
C          C       0.48205   0.07774   0.88893  -0.13681
C          C       0.34536   0.12848   0.85577  -0.13681
C          C       0.40059   0.98103   0.92241  -0.08610
C          C       0.26401   0.03218   0.88963  -0.08538
C          C       0.29183   0.95914   0.92577  -0.04465
C          C       0.20852   0.86297   0.97150   0.55894
C          C       0.67628   0.49890   0.42301   0.62443
C          C       0.71565   0.43401   0.36648  -0.04243
C          C       0.67898   0.32364   0.38172  -0.11851
C          C       0.79282   0.48631   0.30017  -0.08987
C          C       0.72228   0.26474   0.33265   0.06181
C          C       0.83079   0.42589   0.24711  -0.04781
C          C       0.69820   0.15472   0.35713   0.07741
C          C       0.79604   0.31648   0.26415  -0.11874
C          C       0.90844   0.47415   0.17211   0.64484
C          C       0.59539   0.07809   0.38870  -0.13750
C          C       0.78257   0.12834   0.35493  -0.13694
C          C       0.58001   0.98132   0.42211  -0.08556
C          C       0.76748   0.03198   0.38874  -0.08507
C          C       0.66677   0.95919   0.42529  -0.04551
C          C       0.65402   0.86310   0.47120   0.56049
C          C       0.17773   0.50142   0.07706   0.62428
C          C       0.28195   0.56625   0.13363  -0.04060
C          C       0.35569   0.67662   0.11830  -0.11890
C          C       0.30700   0.51399   0.19976  -0.09068
C          C       0.45793   0.73552   0.16721   0.06046
C          C       0.40530   0.57438   0.25279  -0.04823
C          C       0.54398   0.84546   0.14248   0.07799
C          C       0.47990   0.68387   0.23578  -0.11771
C          C       0.43463   0.52608   0.32778   0.64518
C          C       0.51795   0.92226   0.11107  -0.13684
C          C       0.65464   0.87152   0.14423  -0.13684
C          C       0.59941   0.01897   0.07759  -0.08610
C          C       0.73599   0.96782   0.11037  -0.08543
C          C       0.70818   0.04086   0.07423  -0.04456
C          C       0.79148   0.13704   0.02851   0.55900
O          O       0.73095   0.83831   0.46772  -0.62428
O          O       0.56642   0.80421   0.51414  -0.62850
O          O       0.58115   0.44797   0.45885  -0.71953
O          O       0.73647   0.60350   0.43538  -0.58240
O          O       0.63048   0.57310   0.65350  -0.64191
O          O       0.52750   0.59036   0.37057  -0.65542
O          O       0.89325   0.16196   0.03219  -0.62325
O          O       0.76274   0.19601   0.98574  -0.62717
O          O       0.13389   0.55248   0.04105  -0.71904
O          O       0.13290   0.39673   0.06482  -0.58337
O          O       0.05738   0.42667   0.84647  -0.64077
O          O       0.93715   0.40996   0.12925  -0.65568
O          O       0.26905   0.16169   0.53228  -0.62435
O          O       0.43358   0.19579   0.48586  -0.62860
O          O       0.41885   0.55203   0.54115  -0.71948
O          O       0.26353   0.39651   0.56462  -0.58248
O          O       0.36952   0.42690   0.34650  -0.64198
O          O       0.47251   0.40964   0.62943  -0.65544
O          O       0.10675   0.83804   0.96781  -0.62321
O          O       0.23726   0.80400   0.01426  -0.62712
O          O       0.86611   0.44752   0.95895  -0.71911
O          O       0.86710   0.60327   0.93518  -0.58338
O          O       0.94262   0.57333   0.15353  -0.64072
O          O       0.06285   0.59005   0.87076  -0.65565

