data_crystal

_audit_creation_method 'AiiDA-DDEC plugin'

_cell_length_a        12.01126
_cell_length_b        13.47017
_cell_length_c        14.08766

_cell_angle_alpha     68.15457
_cell_angle_beta     75.76958
_cell_angle_gamma     84.36690

_symmetry_space_group_name_Hall 'P 1'
_symmetry_space_group_name_H-M  'P 1'

loop_
_symmetry_equiv_pos_as_xyz
 'x,y,z'

loop_
_atom_site_label
_atom_site_type_symbol
_atom_site_fract_x
_atom_site_fract_y
_atom_site_fract_z
_atom_site_charge
Zn         Zn      0.06823   0.37378   0.95718   0.95959
Zn         Zn      0.93688   0.62476   0.04306   0.96134
H          H       0.06013   0.32886   0.67118   0.11830
H          H       0.03945   0.25247   0.54004   0.10541
H          H       0.95593   0.94705   0.78964   0.11769
H          H       0.97603   0.02408   0.91856   0.12576
H          H       0.09738   0.91455   0.64774   0.11182
H          H       0.76751   0.13877   0.64494   0.14017
H          H       0.64235   0.30549   0.61546   0.18374
H          H       0.82059   0.42998   0.28011   0.20137
H          H       0.94073   0.27004   0.31068   0.15429
H          H       0.74953   0.05463   0.26073   0.11344
H          H       0.87132   0.20179   0.12001   0.12452
H          H       0.63211   0.43300   0.20055   0.11517
H          H       0.50431   0.28586   0.33354   0.11017
H          H       0.71017   0.02446   0.46109   0.10404
H          H       0.47497   0.09910   0.21769   0.11450
H          H       0.34291   0.18999   0.09865   0.12407
H          H       0.10443   0.25299   0.35146   0.09791
H          H       0.23344   0.16162   0.47151   0.10540
H          H       0.94103   0.67001   0.32957   0.11825
H          H       0.95824   0.74666   0.46170   0.10564
H          H       0.05044   0.05047   0.21216   0.11740
H          H       0.03339   0.97325   0.08218   0.12548
H          H       0.90401   0.08276   0.35449   0.11312
H          H       0.23129   0.85706   0.35596   0.14016
H          H       0.35466   0.68904   0.38474   0.18457
H          H       0.18040   0.56654   0.72113   0.20127
H          H       0.06191   0.72777   0.69130   0.15495
H          H       0.25187   0.94368   0.74261   0.11406
H          H       0.13166   0.79480   0.88228   0.12435
H          H       0.37281   0.56686   0.79761   0.11500
H          H       0.49892   0.71579   0.66543   0.11045
H          H       0.29189   0.97590   0.54113   0.10432
H          H       0.52732   0.90147   0.78418   0.11414
H          H       0.65927   0.81009   0.90331   0.12375
H          H       0.89584   0.74429   0.65095   0.09926
H          H       0.76643   0.83644   0.53099   0.10576
C          C       0.01880   0.18238   0.80268  -0.02403
C          C       0.03643   0.24574   0.69552  -0.10421
C          C       0.02443   0.20268   0.62290  -0.15268
C          C       0.99557   0.09433   0.65556   0.05437
C          C       0.97852   0.03093   0.76299  -0.13467
C          C       0.98944   0.07448   0.83589  -0.08353
C          C       0.03195   0.23071   0.87981   0.55215
C          C       0.99192   0.04609   0.57772   0.03097
C          C       0.05303   0.95053   0.58407  -0.16136
C          C       0.93735   0.09445   0.49292   0.02559
C          C       0.86383   0.19175   0.48126   0.04975
C          C       0.78007   0.20118   0.56720  -0.06653
C          C       0.70887   0.29353   0.55271  -0.17383
C          C       0.73603   0.35930   0.45129   0.24238
C          C       0.80852   0.37000   0.36064  -0.13780
C          C       0.87614   0.27284   0.38209  -0.07977
C          C       0.62101   0.16058   0.30977   0.07243
C          C       0.72333   0.13759   0.24724  -0.14400
C          C       0.79222   0.21965   0.16871  -0.07842
C          C       0.76158   0.32632   0.15550  -0.04186
C          C       0.65628   0.34983   0.21339  -0.10446
C          C       0.58539   0.26777   0.28804  -0.14644
C          C       0.84474   0.41408   0.08901   0.60693
C          C       0.55681   0.07583   0.40354   0.02303
C          C       0.61830   0.01157   0.47754  -0.18134
C          C       0.43623   0.06400   0.42735   0.02162
C          C       0.36308   0.12295   0.35333   0.07689
C          C       0.39374   0.13269   0.24715  -0.13748
C          C       0.32031   0.18330   0.18039  -0.08778
C          C       0.21478   0.22591   0.21805  -0.04265
C          C       0.18491   0.21788   0.32317  -0.09538
C          C       0.25769   0.16685   0.39013  -0.14731
C          C       0.13497   0.27842   0.14749   0.56085
C          C       0.98722   0.81569   0.19794  -0.02542
C          C       0.96608   0.75271   0.30538  -0.10219
C          C       0.97619   0.79579   0.37854  -0.15365
C          C       0.00688   0.90361   0.34608   0.05301
C          C       0.02703   0.96682   0.23844  -0.13154
C          C       0.01784   0.92320   0.16506  -0.08462
C          C       0.97549   0.76779   0.12008   0.55329
C          C       0.00980   0.95145   0.42434   0.03162
C          C       0.94857   0.04685   0.41804  -0.16471
C          C       0.06428   0.90290   0.50917   0.02705
C          C       0.13724   0.80526   0.52042   0.04815
C          C       0.21934   0.79494   0.43386  -0.06575
C          C       0.28934   0.70183   0.44780  -0.17526
C          C       0.26285   0.63641   0.54938   0.24301
C          C       0.19188   0.62643   0.64049  -0.13732
C          C       0.12545   0.72433   0.61961  -0.08051
C          C       0.38149   0.83944   0.69192   0.07217
C          C       0.27898   0.86107   0.75513  -0.14416
C          C       0.21098   0.77800   0.83314  -0.07870
C          C       0.24263   0.67177   0.84498  -0.04391
C          C       0.34793   0.64965   0.78605  -0.10379
C          C       0.41790   0.73265   0.71193  -0.14500
C          C       0.16032   0.58318   0.91082   0.60664
C          C       0.44517   0.92497   0.59870   0.02311
C          C       0.38366   0.98925   0.52479  -0.18090
C          C       0.56571   0.93682   0.57491   0.02200
C          C       0.63883   0.87730   0.64875   0.07612
C          C       0.60856   0.86772   0.75485  -0.13630
C          C       0.68205   0.81684   0.82156  -0.08956
C          C       0.78741   0.77383   0.78397  -0.04009
C          C       0.81626   0.78077   0.67910  -0.09906
C          C       0.74341   0.83206   0.61218  -0.14557
C          C       0.86812   0.72204   0.85394   0.56106
O          O       0.01045   0.17774   0.97643  -0.53943
O          O       0.06678   0.32960   0.83863  -0.57110
O          O       0.90491   0.41503   0.00098  -0.56317
O          O       0.84888   0.48598   0.12787  -0.52399
O          O       0.17697   0.30480   0.04805  -0.53296
O          O       0.03086   0.29487   0.18508  -0.48886
O          O      -0.00002   0.82061   0.02349  -0.53914
O          O       0.93860   0.66960   0.16081  -0.57166
O          O       0.10001   0.58059  -0.00067  -0.56280
O          O       0.15666   0.51167   0.87125  -0.52132
O          O       0.82782   0.69728   0.95341  -0.53444
O          O       0.97177   0.70467   0.81572  -0.49244

