data_crystal

_audit_creation_method 'AiiDA-DDEC plugin'

_cell_length_a         9.51292
_cell_length_b        12.06763
_cell_length_c        16.66751

_cell_angle_alpha     96.63678
_cell_angle_beta     89.99312
_cell_angle_gamma     113.13203

_symmetry_space_group_name_Hall 'P 1'
_symmetry_space_group_name_H-M  'P 1'

loop_
_symmetry_equiv_pos_as_xyz
 'x,y,z'

loop_
_atom_site_label
_atom_site_type_symbol
_atom_site_fract_x
_atom_site_fract_y
_atom_site_fract_z
_atom_site_charge
Ho         Ho      0.30536   0.01126   0.43635   2.08222
Ho         Ho      0.69457   0.98874   0.56738   2.08236
Ho         Ho      0.29357   0.98841   0.06745   2.08505
Ho         Ho      0.70650   0.01166   0.93268   2.08297
Ag         Ag      0.04046   0.31853   0.08325   0.35248
Ag         Ag      0.95971   0.68111   0.91813   0.35248
Ag         Ag      0.27832   0.31876   0.58287   0.35128
Ag         Ag      0.72203   0.68116   0.41693   0.35182
H          H       0.40988   0.81345   0.22099   0.14402
H          H       0.11730   0.08905   0.83539   0.13257
H          H       0.54911   0.30301   0.67333   0.08784
H          H       0.55448   0.58434   0.13769   0.11539
H          H       0.59052   0.18727   0.77914   0.14367
H          H       0.83771   0.41048   0.95168   0.10713
H          H       0.57433   0.41148   0.45187   0.10778
H          H       0.42640   0.58845   0.54821   0.10683
H          H       0.51542   0.64382   0.87905   0.14002
H          H       0.44472   0.41522   0.86271   0.11584
H          H       0.24600   0.69644   0.82759   0.08709
H          H       0.02904   0.91090   0.66525   0.13280
H          H       0.04818   0.28795   0.44679   0.10751
H          H       0.40365   0.81242   0.72197   0.14407
H          H       0.23997   0.28858   0.94713   0.10694
H          H       0.97025   0.41466   0.36223   0.11574
H          H       0.59521   0.18681   0.27885   0.14480
H          H       0.45107   0.69777   0.32690   0.08798
H          H       0.95217   0.71261   0.55304   0.10701
H          H       0.88874   0.79763   0.77690   0.11008
H          H       0.16202   0.58939   0.04884   0.10692
H          H       0.48406   0.35576   0.12133   0.14052
H          H       0.88305   0.91094   0.16465   0.13295
H          H       0.75951   0.71116   0.05350   0.10737
H          H       0.10997   0.20067   0.22443   0.11005
H          H       0.03093   0.58626   0.63755   0.11525
H          H       0.90940   0.79785   0.27646   0.11062
H          H       0.75295   0.30220   0.17315   0.08713
H          H       0.09079   0.20241   0.72367   0.11010
H          H       0.96941   0.08775   0.33604   0.13282
H          H       0.12772   0.64335   0.37844   0.13979
H          H       0.87397   0.35756   0.62157   0.13950
C          C       0.70949   0.18935   0.26936  -0.12335
C          C       0.37844   0.76514   0.97673   0.62960
C          C       0.79661   0.25298   0.21002   0.07869
C          C       0.77303   0.44661   0.99303   0.04405
C          C       0.21513   0.13443   0.80021  -0.13494
C          C       0.45602   0.25381   0.71000   0.07866
C          C       0.28936   0.80967   0.73161  -0.12188
C          C       0.96516   0.93050   0.98955   0.49058
C          C       0.92961   0.54363   0.59682  -0.13199
C          C       0.42384   0.58249   0.91173  -0.04072
C          C       0.67329   0.05217   0.37763   0.63284
C          C       0.84322   0.41868   0.58882  -0.04053
C          C       0.72824   0.61381   0.05070   0.09137
C          C       0.91737   0.13336   0.30069  -0.13140
C          C       0.22213   0.92972   0.24628   0.48046
C          C       0.08110   0.86534   0.70056  -0.13352
C          C       0.61369   0.54203   0.09696  -0.13042
C          C       0.61323   0.23642   0.52474   0.62579
C          C       0.47899   0.18999   0.76937  -0.12514
C          C       0.96537   0.93064   0.48973   0.48779
C          C       0.54418   0.74676   0.29017   0.07774
C          C       0.70729   0.93103   0.74517   0.48040
C          C       0.28894   0.63003   0.46354  -0.07809
C          C       0.67513   0.44789   0.49313   0.04313
C          C       0.62129   0.23474   0.02349   0.62887
C          C       0.00191   0.80149   0.76203   0.07392
C          C       0.19996   0.19831   0.73865   0.07371
C          C       0.78510   0.86572   0.19980  -0.13462
C          C       0.76930   0.12632   0.31518   0.00939
C          C       0.15817   0.58198   0.41111  -0.03937
C          C       0.80022   0.80194   0.26144   0.07429
C          C       0.34157   0.63107   0.96422  -0.07868
C          C       0.07156   0.45708   0.40297  -0.13221
C          C       0.52132   0.81054   0.23074  -0.12372
C          C       0.71206   0.37013   0.53667  -0.07632
C          C       0.22667   0.55321   0.00751   0.04396
C          C       0.88661   0.61523   0.55039   0.09188
C          C       0.11408   0.38524   0.44941   0.09151
C          C       0.29322   0.07012   0.25725   0.48007
C          C       0.32563   0.55207   0.50694   0.04325
C          C       0.65807   0.36871   0.03621  -0.07764
C          C       0.03492   0.06947   0.01060   0.49093
C          C       0.35591   0.12708   0.81496   0.01031
C          C       0.37699   0.05247   0.87736   0.63045
C          C       0.64437   0.87318   0.18505   0.01014
C          C       0.32400   0.94696   0.62344   0.63142
C          C      -0.00322   0.19705   0.23915   0.07241
C          C       0.38714   0.76368   0.47670   0.62736
C          C       0.27125   0.38593   0.94992   0.09226
C          C       0.22916   0.87256   0.68595   0.00909
C          C       0.77824   0.07149   0.75508   0.47480
C          C       0.62310   0.94761   0.12259   0.63057
C          C       0.03279   0.06961   0.51042   0.48950
C          C       0.38566   0.45759   0.90351  -0.13167
C          C       0.20234   0.74578   0.79087   0.07870
C          C       0.57566   0.41714   0.08869  -0.04099
N          N       0.80618   0.56683  -0.00100  -0.18604
N          N       0.31844   0.25663   0.69333  -0.19023
N          N       0.76198   0.56802   0.49862  -0.18351
N          N       0.23853   0.43204   0.50130  -0.18325
N          N       0.93699   0.25548   0.19358  -0.19147
N          N       0.19347   0.43296   0.00173  -0.18482
N          N       0.68170   0.74379   0.30680  -0.19023
N          N       0.06189   0.74298   0.80739  -0.18975
O          O       0.46342   0.96153   0.62340  -0.68876
O          O       0.50190   0.03786   0.87651  -0.68837
O          O       0.50840   0.83344   0.95590  -0.66150
O          O       0.81915   0.12540   0.82644  -0.60171
O          O       0.73793   0.01001   0.42517  -0.64812
O          O       0.67407   0.16661   0.54409  -0.66380
O          O       0.32656   0.83327   0.45644  -0.66647
O          O       0.49818   0.96218   0.12340  -0.68811
O          O       0.83890   0.87274   0.52036  -0.57972
O          O       0.15979   0.12751   0.48024  -0.57760
O          O       0.96602   0.12719   0.97976  -0.58222
O          O       0.20946   0.87831   0.30953  -0.58480
O          O       0.52143   0.79520   0.50769  -0.65133
O          O       0.49127   0.16638   0.04422  -0.66225
O          O       0.79036   0.12162   0.69121  -0.58665
O          O       0.03412   0.87275   0.02026  -0.58046
O          O       0.18121   0.87719   0.17440  -0.61301
O          O       0.33309   0.12129   0.19390  -0.59104
O          O       0.53429   0.03889   0.37697  -0.68727
O          O       0.72313   0.20194   0.99247  -0.65605
O          O       0.72974   0.98887   0.07488  -0.64442
O          O       0.30540   0.12281   0.32904  -0.60657
O          O       0.25774   0.98843   0.57614  -0.64856
O          O       0.27028   0.01111   0.92498  -0.64421
O          O       0.47736   0.20492   0.49590  -0.65230
O          O       0.15405   0.11664   0.05682  -0.59687
O          O       0.95934   0.11661   0.55583  -0.59766
O          O       0.84598   0.88330   0.94337  -0.59695
O          O       0.03863   0.88348   0.44429  -0.59548
O          O       0.69471   0.87696   0.67386  -0.60382
O          O       0.27660   0.79809   0.00759  -0.65660
O          O       0.66752   0.88081   0.80880  -0.58946

