data_crystal

_audit_creation_method 'AiiDA-DDEC plugin'

_cell_length_a        12.51681
_cell_length_b        12.51681
_cell_length_c        22.45339

_cell_angle_alpha     90.00000
_cell_angle_beta     90.00000
_cell_angle_gamma     90.00000

_symmetry_space_group_name_Hall 'P 1'
_symmetry_space_group_name_H-M  'P 1'

loop_
_symmetry_equiv_pos_as_xyz
 'x,y,z'

loop_
_atom_site_label
_atom_site_type_symbol
_atom_site_fract_x
_atom_site_fract_y
_atom_site_fract_z
_atom_site_charge
Cu         Cu      0.00000   0.59748   0.00000   0.91305
Cu         Cu      0.00000   0.40252   0.00000   0.91307
Cu         Cu      0.40252   0.00000   0.50000   0.91320
Cu         Cu      0.59748   0.00000   0.50000   0.91321
H          H       0.60532   0.67192   0.79978   0.11478
H          H       0.75307   0.67139   0.87332   0.12519
H          H       0.39468   0.32808   0.79978   0.11486
H          H       0.24693   0.32861   0.87332   0.12529
H          H       0.32808   0.60532   0.29978   0.11487
H          H       0.32861   0.75307   0.37332   0.12530
H          H       0.67192   0.39468   0.29978   0.11474
H          H       0.67139   0.24693   0.37332   0.12526
H          H       0.39468   0.67192   0.20021   0.11469
H          H       0.24693   0.67139   0.12668   0.12529
H          H       0.60532   0.32808   0.20021   0.11482
H          H       0.75307   0.32861   0.12668   0.12535
H          H       0.67192   0.60532   0.70021   0.11471
H          H       0.67139   0.75307   0.62668   0.12524
H          H       0.32808   0.39468   0.70021   0.11473
H          H       0.32861   0.24693   0.62668   0.12534
H          H       0.39468   0.32808   0.20021   0.11480
H          H       0.24693   0.32861   0.12668   0.12533
H          H       0.60532   0.67192   0.20021   0.11475
H          H       0.75307   0.67139   0.12668   0.12525
H          H       0.67192   0.39468   0.70021   0.11462
H          H       0.67139   0.24693   0.62668   0.12527
H          H       0.32808   0.60532   0.70021   0.11485
H          H       0.32861   0.75307   0.62668   0.12534
H          H       0.60532   0.32808   0.79978   0.11488
H          H       0.75307   0.32861   0.87332   0.12532
H          H       0.39468   0.67192   0.79978   0.11474
H          H       0.24693   0.67139   0.87332   0.12522
H          H       0.32808   0.39468   0.29978   0.11478
H          H       0.32861   0.24693   0.37332   0.12533
H          H       0.67192   0.60532   0.29978   0.11476
H          H       0.67139   0.75307   0.37332   0.12522
C          C       0.63765   0.59632   0.81528  -0.14829
C          C       0.72069   0.59664   0.85658  -0.08537
C          C       0.36234   0.40368   0.81528  -0.14829
C          C       0.27931   0.40336   0.85658  -0.08542
C          C       0.40368   0.63765   0.31529  -0.14818
C          C       0.40336   0.72069   0.35659  -0.08547
C          C       0.59632   0.36234   0.31529  -0.14829
C          C       0.59664   0.27931   0.35659  -0.08545
C          C       0.36234   0.59632   0.18471  -0.14826
C          C       0.27931   0.59664   0.14341  -0.08542
C          C       0.63765   0.40368   0.18471  -0.14813
C          C       0.72069   0.40336   0.14341  -0.08556
C          C       0.59632   0.63765   0.68471  -0.14815
C          C       0.59664   0.72069   0.64341  -0.08539
C          C       0.40368   0.36234   0.68471  -0.14813
C          C       0.40336   0.27931   0.64341  -0.08536
C          C       0.36234   0.40368   0.18471  -0.14828
C          C       0.27931   0.40336   0.14341  -0.08535
C          C       0.63765   0.59632   0.18471  -0.14822
C          C       0.72069   0.59664   0.14341  -0.08548
C          C       0.59632   0.36234   0.68471  -0.14813
C          C       0.59664   0.27931   0.64341  -0.08536
C          C       0.40368   0.63765   0.68471  -0.14819
C          C       0.40336   0.72069   0.64341  -0.08542
C          C       0.63765   0.40368   0.81528  -0.14817
C          C       0.72069   0.40336   0.85658  -0.08556
C          C       0.36234   0.59632   0.81528  -0.14831
C          C       0.27931   0.59664   0.85658  -0.08540
C          C       0.40368   0.36234   0.31529  -0.14817
C          C       0.40336   0.27931   0.35659  -0.08548
C          C       0.59632   0.63765   0.31529  -0.14823
C          C       0.59664   0.72069   0.35659  -0.08546
C          C       0.59623   0.50000   0.79301   0.07425
C          C       0.85351   0.50000   0.92069   0.58058
C          C       0.76376   0.50000   0.87712  -0.03766
C          C       0.40377   0.50000   0.79301   0.07430
C          C       0.14649   0.50000   0.92069   0.58054
C          C       0.23624   0.50000   0.87712  -0.03762
C          C       0.50000   0.59623   0.29301   0.07423
C          C       0.50000   0.85351   0.42069   0.58034
C          C       0.50000   0.76376   0.37712  -0.03759
C          C       0.50000   0.40377   0.29301   0.07426
C          C       0.50000   0.14649   0.42069   0.58043
C          C       0.50000   0.23624   0.37712  -0.03760
C          C       0.40377   0.50000   0.20698   0.07415
C          C       0.14649   0.50000   0.07931   0.58052
C          C       0.23624   0.50000   0.12288  -0.03764
C          C       0.59623   0.50000   0.20698   0.07418
C          C       0.85351   0.50000   0.07931   0.58039
C          C       0.76376   0.50000   0.12288  -0.03753
C          C       0.50000   0.59623   0.70698   0.07400
C          C       0.50000   0.85351   0.57930   0.58052
C          C       0.50000   0.76376   0.62288  -0.03762
C          C       0.50000   0.40377   0.70698   0.07393
C          C       0.50000   0.14649   0.57930   0.58041
C          C       0.50000   0.23624   0.62288  -0.03761
C          C       0.50000   0.50000   0.75000   0.00602
C          C       0.50000   0.50000   0.25000   0.00592
O          O       0.88867   0.59134   0.93775  -0.54407
O          O       0.11133   0.40866   0.93775  -0.54395
O          O       0.40866   0.88867   0.43775  -0.54383
O          O       0.59134   0.11133   0.43775  -0.54397
O          O       0.11133   0.59134   0.06224  -0.54402
O          O       0.88867   0.40866   0.06224  -0.54387
O          O       0.59134   0.88867   0.56224  -0.54409
O          O       0.40866   0.11133   0.56224  -0.54383
O          O       0.11133   0.40866   0.06224  -0.54386
O          O       0.88867   0.59134   0.06224  -0.54399
O          O       0.59134   0.11133   0.56224  -0.54400
O          O       0.40866   0.88867   0.56224  -0.54391
O          O       0.88867   0.40866   0.93775  -0.54397
O          O       0.11133   0.59134   0.93775  -0.54405
O          O       0.40866   0.11133   0.43775  -0.54382
O          O       0.59134   0.88867   0.43775  -0.54395

