data_crystal

_audit_creation_method 'AiiDA-DDEC plugin'

_cell_length_a        12.21653
_cell_length_b        13.89681
_cell_length_c        16.47626

_cell_angle_alpha     90.00463
_cell_angle_beta     89.99722
_cell_angle_gamma     89.91478

_symmetry_space_group_name_Hall 'P 1'
_symmetry_space_group_name_H-M  'P 1'

loop_
_symmetry_equiv_pos_as_xyz
 'x,y,z'

loop_
_atom_site_label
_atom_site_type_symbol
_atom_site_fract_x
_atom_site_fract_y
_atom_site_fract_z
_atom_site_charge
Mn         Mn      0.54188   0.39076   0.41613   1.20573
Mn         Mn      0.45857   0.10912   0.91614   1.20715
Mn         Mn      0.04246   0.60903   0.08373   1.20585
Mn         Mn      0.95779   0.89132   0.58369   1.20620
Mn         Mn      0.45834   0.60910   0.58384   1.20726
Mn         Mn      0.54126   0.89098   0.08387   1.20676
Mn         Mn      0.95776   0.39142   0.91638   1.20625
Mn         Mn      0.04243   0.10879   0.41631   1.20628
H          H       0.24922   0.65825   0.52351   0.11766
H          H       0.51185   0.26215   0.15602   0.13782
H          H       0.77834   0.45227   0.21964   0.14298
H          H       0.75074   0.84161   0.02350   0.11789
H          H       0.48812   0.23782   0.65616   0.13801
H          H       0.22157   0.04780   0.71965   0.14289
H          H       0.74939   0.34211   0.97633   0.11705
H          H       0.01087   0.73746   0.34396   0.13800
H          H       0.27848   0.54759   0.28047   0.14362
H          H       0.25059   0.15808   0.47638   0.11712
H          H       0.98924   0.76269   0.84398   0.13792
H          H       0.72171   0.95242   0.78039   0.14321
H          H       0.75081   0.34157   0.47652   0.11761
H          H       0.48823   0.73786   0.84400   0.13783
H          H       0.22178   0.54785   0.78032   0.14304
H          H       0.24922   0.15834   0.97650   0.11795
H          H       0.51190   0.76226   0.34386   0.13755
H          H       0.77850   0.95221   0.28042   0.14302
H          H       0.25062   0.65799   0.02368   0.11707
H          H       0.98930   0.26260   0.65599   0.13789
H          H       0.72164   0.45235   0.71958   0.14342
H          H       0.74942   0.84202   0.52373   0.11746
H          H       0.01083   0.23739   0.15609   0.13810
H          H       0.27836   0.04769   0.21964   0.14334
C          C       0.21963   0.65285   0.46156  -0.05899
C          C       0.41729   0.27158   0.49679   0.56060
C          C       0.58583   0.30078   0.13924  -0.06934
C          C       0.60498   0.36633   0.28161   0.54470
C          C       0.62731   0.29446   0.06017  -0.02482
C          C       0.37028   0.53733   0.43018   0.61877
C          C       0.73567   0.40880   0.17490  -0.06683
C          C       0.27371   0.59495   0.40505  -0.05039
C          C       0.64155   0.35726   0.19680  -0.04360
C          C       0.78034   0.84709   0.96154  -0.05922
C          C       0.58263   0.22839   0.99681   0.55937
C          C       0.41417   0.19920   0.63930  -0.06932
C          C       0.39490   0.13381   0.78172   0.54513
C          C       0.37271   0.20557   0.56022  -0.02493
C          C       0.62978   0.96267   0.93018   0.61874
C          C       0.26432   0.09126   0.67495  -0.06709
C          C       0.72643   0.90511   0.90502  -0.04938
C          C       0.35844   0.14277   0.69687  -0.04357
C          C       0.72016   0.34725   0.03840  -0.05968
C          C       0.91778   0.72836   0.00304   0.55983
C          C       0.08517   0.69908   0.36066  -0.06956
C          C       0.10497   0.63398   0.21837   0.54388
C          C       0.12654   0.70543   0.43971  -0.02545
C          C       0.87012   0.46338   0.07012   0.61855
C          C       0.23571   0.59126   0.32513  -0.06688
C          C       0.77385   0.40532   0.09502  -0.04971
C          C       0.14149   0.64292   0.30312  -0.04347
C          C       0.27979   0.15292   0.53846  -0.06008
C          C       0.08222   0.77169   0.50305   0.55944
C          C       0.91487   0.80092   0.86067  -0.06948
C          C       0.89535   0.86596   0.71833   0.54400
C          C       0.87340   0.79450   0.93969  -0.02555
C          C       0.12985   0.03693   0.57017   0.61912
C          C       0.76450   0.90879   0.82508  -0.06685
C          C       0.22611   0.09487   0.59509  -0.04972
C          C       0.85874   0.85713   0.80310  -0.04408
C          C       0.78042   0.34701   0.53847  -0.05940
C          C       0.58267   0.72835   0.50322   0.56000
C          C       0.41429   0.69921   0.86079  -0.06899
C          C       0.39509   0.63371   0.71833   0.54464
C          C       0.37284   0.70556   0.93989  -0.02470
C          C       0.62981   0.46255   0.56985   0.61865
C          C       0.26444   0.59134   0.82506  -0.06710
C          C       0.72642   0.40493   0.59503  -0.05042
C          C       0.35859   0.64281   0.80317  -0.04379
C          C       0.21961   0.15291   0.03845  -0.05960
C          C       0.41749   0.77170   0.00321   0.55873
C          C       0.58586   0.80084   0.36077  -0.06925
C          C       0.60505   0.86615   0.21831   0.54475
C          C       0.62728   0.79448   0.43987  -0.02497
C          C       0.37025   0.03745   0.06980   0.61859
C          C       0.73569   0.90879   0.32513  -0.06696
C          C       0.27367   0.09502   0.09497  -0.04983
C          C       0.64167   0.85716   0.30315  -0.04359
C          C       0.27991   0.65288   0.96162  -0.05936
C          C       0.08216   0.27173   0.99701   0.55996
C          C       0.91498   0.30091   0.63931  -0.06942
C          C       0.89544   0.36597   0.78168   0.54435
C          C       0.87355   0.29449   0.56028  -0.02538
C          C       0.12990   0.53703   0.92984   0.61880
C          C       0.76452   0.40868   0.67495  -0.06626
C          C       0.22620   0.59494   0.90491  -0.04999
C          C       0.85881   0.35707   0.69692  -0.04430
C          C       0.72018   0.84718   0.46165  -0.06014
C          C       0.91785   0.22827   0.49694   0.56002
C          C       0.08514   0.19909   0.13935  -0.06957
C          C       0.10480   0.13397   0.28162   0.54483
C          C       0.12648   0.20544   0.06029  -0.02528
C          C       0.87015   0.96319   0.42990   0.61876
C          C       0.23565   0.09131   0.17492  -0.06654
C          C       0.77387   0.90522   0.40501  -0.04966
C          C       0.14140   0.14293   0.19688  -0.04415
O          O       0.52216   0.29367   0.50001  -0.54073
O          O       0.35581   0.30539   0.44385  -0.48986
O          O       0.65353   0.42528   0.33001  -0.47310
O          O       0.42730   0.49484   0.37739  -0.49171
O          O       0.61126   0.47168   0.49230  -0.55583
O          O       0.52441   0.31816   0.31276  -0.46232
O          O       0.47787   0.20601   0.00022  -0.54027
O          O       0.64402   0.19462   0.94377  -0.48937
O          O       0.34682   0.07450   0.83000  -0.47336
O          O       0.57270   0.00502   0.87732  -0.49247
O          O       0.38890   0.02841   0.99228  -0.55641
O          O       0.47518   0.18231   0.81294  -0.46324
O          O       0.02255   0.70571  -0.00016  -0.54013
O          O       0.85606   0.69478   0.05588  -0.48889
O          O       0.15420   0.57514   0.17008  -0.47399
O          O       0.92738   0.50534   0.12294  -0.49069
O          O       0.11166   0.52788   0.00745  -0.55625
O          O       0.02383   0.68164   0.18727  -0.46179
O          O       0.97753   0.79460   0.49981  -0.54072
O          O       0.14401   0.80526   0.55585  -0.48820
O          O       0.84605   0.92469   0.67003  -0.47461
O          O       0.07265   0.99473   0.62290  -0.49149
O          O       0.88845   0.97242   0.50749  -0.55627
O          O       0.97656   0.81837   0.68722  -0.46113
O          O       0.47790   0.70598   0.49981  -0.54095
O          O       0.64407   0.69459   0.55625  -0.48933
O          O       0.34671   0.57455   0.67002  -0.47359
O          O       0.57270   0.50497   0.62264  -0.49198
O          O       0.38887   0.52837   0.50772  -0.55617
O          O       0.47546   0.68205   0.68707  -0.46245
O          O       0.52214   0.79438  -0.00044  -0.53938
O          O       0.35619   0.80539   0.05633  -0.48926
O          O       0.65272   0.92572   0.17006  -0.47299
O          O       0.42729   0.99506   0.12266  -0.49211
O          O       0.61113   0.97161   0.00771  -0.55642
O          O       0.52496   0.81745   0.18701  -0.46343
O          O       0.97748   0.29470   0.00026  -0.54063
O          O       0.14396   0.30525   0.94419  -0.48858
O          O       0.84613   0.42474   0.82997  -0.47438
O          O       0.07274   0.49473   0.87713  -0.49142
O          O       0.88841   0.47279   0.99253  -0.55658
O          O       0.97656   0.31831   0.81285  -0.46163
O          O       0.02255   0.20539   0.50019  -0.54045
O          O       0.85607   0.19471   0.44413  -0.48872
O          O       0.15412   0.07523   0.32992  -0.47462
O          O       0.92739   0.00524   0.37712  -0.49127
O          O       0.11168   0.02765   0.49256  -0.55630
O          O       0.02356   0.18152   0.31272  -0.46200

