data_crystal

_audit_creation_method 'AiiDA-DDEC plugin'

_cell_length_a        12.03908
_cell_length_b        15.72015
_cell_length_c        16.72375

_cell_angle_alpha     109.99575
_cell_angle_beta     97.25064
_cell_angle_gamma     108.69574

_symmetry_space_group_name_Hall 'P 1'
_symmetry_space_group_name_H-M  'P 1'

loop_
_symmetry_equiv_pos_as_xyz
 'x,y,z'

loop_
_atom_site_label
_atom_site_type_symbol
_atom_site_fract_x
_atom_site_fract_y
_atom_site_fract_z
_atom_site_charge
Mn         Mn      0.50000   0.50000   0.50000   1.13851
Cu         Cu      0.81650   0.63384   0.57044   1.04118
Cu         Cu      0.18350   0.36617   0.42956   1.04133
Cu         Cu      0.00000   0.50002   0.50000   1.03733
H          H       0.27159   0.59982   0.90749   0.13474
H          H       0.55169   0.79209   0.02516   0.08712
H          H       0.68601   0.88683   0.10562   0.08610
H          H       0.83183   0.87190   0.79985   0.11993
H          H       0.58126   0.05589   0.13173   0.08152
H          H       0.67743   0.03544   0.20761   0.08979
H          H       0.46031   0.77224   0.14391   0.08392
H          H       0.43926   0.87202   0.22329   0.08731
H          H       0.84453   0.81122   0.42805   0.12201
H          H       0.81574   0.90834   0.34088   0.13131
H          H       0.20570   0.86462   0.95510   0.12130
H          H       0.81013   0.97020   0.94748   0.12287
H          H       0.12591   0.51996   0.75709   0.13001
H          H       0.40429   0.91775   0.01895   0.08100
H          H       0.33564   0.90740   0.10584   0.09023
H          H       0.44926   0.75347   0.88542   0.11245
H          H       0.47265   0.65711   0.73938   0.12288
H          H       0.79781   0.36476   0.34292   0.09898
H          H       0.45261   0.12008   0.38046   0.13759
H          H       0.54376   0.29448   0.49146   0.11743
H          H       0.46309   0.63220   0.33527   0.12482
H          H       0.71347   0.19328   0.23453   0.10715
H          H       0.43155   0.72872   0.25023   0.12037
H          H       0.05512   0.78147   0.80756   0.12775
H          H       0.72841   0.40018   0.09251   0.13464
H          H       0.44832   0.20792   0.97484   0.08723
H          H       0.31400   0.11318   0.89439   0.08592
H          H       0.16818   0.12811   0.20015   0.11991
H          H       0.41875   0.94412   0.86827   0.08156
H          H       0.32258   0.96457   0.79240   0.08971
H          H       0.53969   0.22776   0.85609   0.08406
H          H       0.56075   0.12799   0.77671   0.08730
H          H       0.15548   0.18878   0.57196   0.12192
H          H       0.18426   0.09166   0.65913   0.13123
H          H       0.79431   0.13539   0.04491   0.12121
H          H       0.18987   0.02980   0.05252   0.12270
H          H       0.87410   0.48005   0.24291   0.13003
H          H       0.59571   0.08225   0.98106   0.08101
H          H       0.66437   0.09261   0.89416   0.09021
H          H       0.55075   0.24653   0.11458   0.11247
H          H       0.52735   0.34289   0.26063   0.12305
H          H       0.20220   0.63524   0.65708   0.09885
H          H       0.54739   0.87993   0.61954   0.13769
H          H       0.45625   0.70553   0.50855   0.11731
H          H       0.53691   0.36780   0.66473   0.12489
H          H       0.28654   0.80672   0.76547   0.10720
H          H       0.56846   0.27128   0.74977   0.12041
H          H       0.94489   0.21855   0.19245   0.12773
C          C       0.22339   0.63859   0.88469  -0.20987
C          C       0.66594   0.69701   0.67493   0.59125
C          C       0.00799   0.60667   0.68058   0.59544
C          C       0.65381   0.75862   0.76149  -0.05516
C          C       0.51824   0.90626   0.12274   0.05591
C          C       0.59740   0.87156   0.06439  -0.03364
C          C       0.74863   0.84748   0.81957  -0.07201
C          C       0.58245   0.01751   0.17567  -0.02972
C          C       0.50060   0.85184   0.18396  -0.03316
C          C       0.72985   0.44407   0.48515   0.58491
C          C       0.75507   0.79368   0.38823  -0.07149
C          C       0.73947   0.84767   0.34022  -0.21694
C          C       0.24895   0.73695   0.93951   0.26130
C          C       0.18733   0.78892   0.91290  -0.23925
C          C       0.62303   0.82360   0.28898   0.25860
C          C       0.73651   0.90203   0.90125  -0.22080
C          C       0.14205   0.59437   0.80170  -0.06340
C          C       0.39286   0.88183   0.06507  -0.03627
C          C       0.53330   0.77903   0.86708  -0.21763
C          C       0.54603   0.72527   0.78572  -0.06128
C          C       0.72674   0.30978   0.35296  -0.07527
C          C       0.65539   0.71489   0.38603  -0.07417
C          C       0.08207   0.64639   0.77317  -0.07034
C          C       0.62897   0.86700   0.92507   0.25016
C          C       0.67080   0.65557   0.43640   0.59567
C          C       0.68117   0.34006   0.42589  -0.08726
C          C       0.53014   0.17410   0.37414  -0.20284
C          C       0.58122   0.27091   0.43580  -0.04383
C          C       0.57809   0.14474   0.30152   0.27694
C          C       0.53959   0.69283   0.33599  -0.06979
C          C       0.67721   0.21304   0.29119  -0.22858
C          C       0.52237   0.74682   0.28790  -0.24060
C          C       0.10329   0.74268   0.83039  -0.05241
C          C       0.77662   0.36142   0.11531  -0.20961
C          C       0.33406   0.30300   0.32507   0.59114
C          C       0.99202   0.39335   0.31943   0.59594
C          C       0.34620   0.24139   0.23851  -0.05485
C          C       0.48177   0.09375   0.87726   0.05580
C          C       0.40260   0.12845   0.93562  -0.03348
C          C       0.25138   0.15253   0.18043  -0.07201
C          C       0.41755   0.98249   0.82434  -0.02974
C          C       0.49940   0.14816   0.81604  -0.03307
C          C       0.27016   0.55593   0.51486   0.58495
C          C       0.24494   0.20632   0.61177  -0.07155
C          C       0.26054   0.15233   0.65978  -0.21695
C          C       0.75105   0.26305   0.06050   0.26109
C          C       0.81267   0.21109   0.08711  -0.23932
C          C       0.37697   0.17640   0.71103   0.25847
C          C       0.26349   0.09798   0.09875  -0.22095
C          C       0.85795   0.40564   0.19831  -0.06336
C          C       0.60715   0.11818   0.93493  -0.03624
C          C       0.46671   0.22097   0.13292  -0.21744
C          C       0.45397   0.27473   0.21428  -0.06147
C          C       0.27327   0.69023   0.64704  -0.07541
C          C       0.34461   0.28511   0.61398  -0.07419
C          C       0.91794   0.35363   0.22683  -0.07033
C          C       0.37103   0.13300   0.07493   0.25008
C          C       0.32921   0.34444   0.56360   0.59579
C          C       0.31884   0.65994   0.57411  -0.08705
C          C       0.46986   0.82590   0.62586  -0.20279
C          C       0.41879   0.72909   0.56420  -0.04384
C          C       0.42192   0.85526   0.69848   0.27667
C          C       0.46041   0.30718   0.66401  -0.06976
C          C       0.32280   0.78697   0.70881  -0.22831
C          C       0.47763   0.25319   0.71210  -0.24040
C          C       0.89672   0.25733   0.16962  -0.05235
O          O       0.67175   0.48015   0.53601  -0.56125
O          O       0.33723   0.77604   0.01694  -0.20900
O          O       0.95511   0.65859   0.66297  -0.59262
O          O       0.57226   0.62353   0.62242  -0.57214
O          O       0.77279   0.72392   0.66221  -0.56404
O          O       0.57745   0.58612   0.43256  -0.58038
O          O       0.01104   0.52718   0.62487  -0.57686
O          O       0.78009   0.67986   0.48046  -0.59104
O          O       0.61707   0.87900   0.24157  -0.20647
O          O       0.52196   0.04858   0.24256  -0.19835
O          O       0.83368   0.50632   0.48415  -0.62817
O          O       0.61761   0.92257   0.00634  -0.25176
O          O       0.32826   0.51985   0.46399  -0.56139
O          O       0.66277   0.22396   0.98307  -0.20894
O          O       0.04490   0.34143   0.33703  -0.59301
O          O       0.42774   0.37647   0.37758  -0.57194
O          O       0.22721   0.27608   0.33779  -0.56422
O          O       0.42255   0.41388   0.56744  -0.58028
O          O       0.98897   0.47283   0.37514  -0.57695
O          O       0.21991   0.32014   0.51954  -0.59128
O          O       0.38293   0.12101   0.75843  -0.20659
O          O       0.47804   0.95143   0.75744  -0.19822
O          O       0.16632   0.49369   0.51585  -0.62829
O          O       0.38240   0.07744   0.99367  -0.25189

