data_crystal

_audit_creation_method 'AiiDA-DDEC plugin'

_cell_length_a        11.83764
_cell_length_b        14.05126
_cell_length_c        14.00145

_cell_angle_alpha     90.00000
_cell_angle_beta     116.08631
_cell_angle_gamma     90.00000

_symmetry_space_group_name_Hall 'P 1'
_symmetry_space_group_name_H-M  'P 1'

loop_
_symmetry_equiv_pos_as_xyz
 'x,y,z'

loop_
_atom_site_label
_atom_site_type_symbol
_atom_site_fract_x
_atom_site_fract_y
_atom_site_fract_z
_atom_site_charge
Co         Co      0.90093   0.44764   0.95158   0.84842
Co         Co      0.09906   0.94764   0.54842   0.84857
Co         Co      0.09906   0.55236   0.04842   0.84848
Co         Co      0.90094   0.05236   0.45158   0.84847
H          H       0.65592   0.53503   0.90234   0.10215
H          H       0.43290   0.48782   0.84915   0.12782
H          H       0.54811   0.19548   0.85395   0.12876
H          H       0.76590   0.25556   0.90573   0.10844
H          H       0.98551   0.24869   0.73481   0.13444
H          H       0.33454   0.18646   0.72171   0.11626
H          H       0.31025   0.42028   0.91219   0.11161
H          H       0.34407   0.03502   0.59766   0.10213
H          H       0.56709   0.98782   0.65084   0.12767
H          H       0.45188   0.69548   0.64605   0.12868
H          H       0.23409   0.75556   0.59426   0.10862
H          H       0.01448   0.74869   0.76519   0.13423
H          H       0.66545   0.68647   0.77829   0.11639
H          H       0.68974   0.92028   0.58781   0.11172
H          H       0.34408   0.46498   0.09766   0.10210
H          H       0.56709   0.51218   0.15084   0.12765
H          H       0.45188   0.80452   0.14605   0.12877
H          H       0.23409   0.74444   0.09426   0.10860
H          H       0.01449   0.75131   0.26519   0.13423
H          H       0.66545   0.81354   0.27829   0.11644
H          H       0.68974   0.57972   0.08781   0.11165
H          H       0.65592   0.96498   0.40234   0.10210
H          H       0.43291   0.01218   0.34916   0.12775
H          H       0.54812   0.30452   0.35395   0.12875
H          H       0.76591   0.24444   0.40573   0.10847
H          H       0.98551   0.25131   0.23481   0.13439
H          H       0.33454   0.31354   0.22171   0.11629
H          H       0.31025   0.07972   0.41219   0.11160
C          C       0.62707   0.46084   0.89064   0.09558
C          C       0.50373   0.43366   0.86182  -0.19258
C          C       0.47032   0.33679   0.84750   0.11335
C          C       0.56683   0.27161   0.86246  -0.18890
C          C       0.68873   0.30433   0.89185   0.09123
C          C       0.08434   0.26447   0.75933  -0.09601
C          C       0.15486   0.20979   0.72109  -0.01928
C          C       0.28228   0.23002   0.75278  -0.13101
C          C       0.33936   0.30804   0.81918   0.04465
C          C       0.26819   0.36118   0.85800  -0.13689
C          C       0.14251   0.33886   0.83066  -0.02367
C          C       0.09453   0.13109   0.64358   0.58038
C          C       0.07566   0.39507   0.88146   0.57495
C          C       0.37292   0.96084   0.60935   0.09588
C          C       0.49626   0.93366   0.63818  -0.19278
C          C       0.52967   0.83679   0.65250   0.11317
C          C       0.43316   0.77161   0.63754  -0.18876
C          C       0.31126   0.80434   0.60815   0.09118
C          C       0.91565   0.76447   0.74067  -0.09610
C          C       0.84513   0.70979   0.77891  -0.01935
C          C       0.71771   0.73002   0.74722  -0.13094
C          C       0.66063   0.80804   0.68082   0.04468
C          C       0.73180   0.86118   0.64200  -0.13683
C          C       0.85748   0.83886   0.66934  -0.02362
C          C       0.90547   0.63109   0.85642   0.58050
C          C       0.92433   0.89507   0.61854   0.57495
C          C       0.37292   0.53917   0.10935   0.09571
C          C       0.49626   0.56634   0.13818  -0.19268
C          C       0.52967   0.66322   0.15250   0.11317
C          C       0.43316   0.72839   0.13754  -0.18879
C          C       0.31126   0.69567   0.10815   0.09126
C          C       0.91565   0.73554   0.24067  -0.09592
C          C       0.84513   0.79021   0.27891  -0.01940
C          C       0.71771   0.76998   0.24722  -0.13089
C          C       0.66063   0.69196   0.18082   0.04460
C          C       0.73180   0.63882   0.14200  -0.13688
C          C       0.85749   0.66114   0.16934  -0.02371
C          C       0.90547   0.86891   0.35642   0.58029
C          C       0.92433   0.60493   0.11854   0.57500
C          C       0.62707   0.03917   0.39065   0.09559
C          C       0.50374   0.06634   0.36182  -0.19256
C          C       0.47032   0.16321   0.34750   0.11323
C          C       0.56683   0.22839   0.36246  -0.18876
C          C       0.68873   0.19567   0.39185   0.09124
C          C       0.08435   0.23554   0.25933  -0.09598
C          C       0.15486   0.29021   0.22109  -0.01931
C          C       0.28228   0.26998   0.25278  -0.13096
C          C       0.33936   0.19196   0.31918   0.04465
C          C       0.26819   0.13882   0.35800  -0.13680
C          C       0.14251   0.16114   0.33066  -0.02379
C          C       0.09453   0.36891   0.14358   0.58041
C          C       0.07567   0.10493   0.38146   0.57500
N          N       0.71954   0.39759   0.90633  -0.21438
N          N       0.28045   0.89759   0.59367  -0.21427
N          N       0.28045   0.60241   0.09367  -0.21427
N          N       0.71954   0.10241   0.40633  -0.21436
O          O       0.96306   0.37123   0.86221  -0.53056
O          O       0.13793   0.46232   0.94286  -0.57038
O          O       0.98074   0.14272   0.57504  -0.53002
O          O       0.16191   0.05820   0.64974  -0.54442
O          O       0.03693   0.87123   0.63779  -0.53095
O          O       0.86206   0.96232   0.55713  -0.57013
O          O       0.01925   0.64272   0.92496  -0.53037
O          O       0.83808   0.55821   0.85026  -0.54417
O          O       0.03693   0.62877   0.13779  -0.53081
O          O       0.86206   0.53769   0.05713  -0.57025
O          O       0.01925   0.85728   0.42496  -0.53027
O          O       0.83809   0.94180   0.35026  -0.54404
O          O       0.96306   0.12877   0.36221  -0.53063
O          O       0.13793   0.03768   0.44286  -0.57037
O          O       0.98075   0.35728   0.07504  -0.53008
O          O       0.16191   0.44180   0.14974  -0.54440

