data_crystal

_audit_creation_method 'AiiDA-DDEC plugin'

_cell_length_a         9.17562
_cell_length_b        12.60095
_cell_length_c        12.60109

_cell_angle_alpha     66.41338
_cell_angle_beta     77.94994
_cell_angle_gamma     77.94981

_symmetry_space_group_name_Hall 'P 1'
_symmetry_space_group_name_H-M  'P 1'

loop_
_symmetry_equiv_pos_as_xyz
 'x,y,z'

loop_
_atom_site_label
_atom_site_type_symbol
_atom_site_fract_x
_atom_site_fract_y
_atom_site_fract_z
_atom_site_charge
Cu         Cu      0.31485   0.22683   0.17489   0.84199
Cu         Cu      0.17050   0.23979   0.36976   0.84431
Cu         Cu      0.68514   0.82511   0.77317   0.84197
Cu         Cu      0.82950   0.63024   0.76021   0.84438
H          H       0.54868   0.04911   0.09779   0.10003
H          H       0.74489   0.04363   0.93096   0.12423
H          H       0.59837   0.41426   0.75804   0.12412
H          H       0.40451   0.40019   0.92985   0.09971
H          H       0.06921   0.05737   0.60876   0.10354
H          H       0.87462   0.04201   0.77940   0.12698
H          H       0.76441   0.42034   0.62769   0.12934
H          H       0.95652   0.41536   0.45935   0.09823
H          H       0.51112   0.46620   0.33390   0.08356
H          H       0.70599   0.39165   0.13866   0.10250
H          H       0.73964   0.50071   0.18193   0.08885
H          H       0.48041   0.61287   0.12761   0.11319
H          H       0.46487   0.50272   0.07728   0.13190
H          H       0.62615   0.27544   0.46950   0.11736
H          H       0.73838   0.24490   0.34886   0.13286
H          H       0.76862   0.36154   0.38089   0.12658
H          H       0.82026   0.14884   0.20159   0.10199
H          H       0.74711   0.96601   0.35404   0.08688
H          H       0.79025   0.06034   0.41180   0.09707
H          H       0.04304   0.94640   0.44147   0.13212
H          H       0.00286   0.84299   0.39293   0.11574
H          H       0.86848   0.96500   0.15825   0.12022
H          H      -0.00271   0.06372   0.06937   0.11707
H          H       0.05552   0.93909   0.18993   0.12212
H          H       0.45132   0.90221   0.95089   0.09998
H          H       0.25512   0.06904   0.95637   0.12401
H          H       0.40163   0.24196   0.58574   0.12412
H          H       0.59549   0.07015   0.59981   0.09976
H          H       0.93079   0.39124   0.94263   0.10347
H          H       0.12538   0.22059   0.95798   0.12695
H          H       0.23558   0.37231   0.57966   0.12934
H          H       0.04348   0.54065   0.58464   0.09823
H          H       0.48887   0.66610   0.53380   0.08352
H          H       0.29400   0.86134   0.60835   0.10264
H          H       0.26036   0.81807   0.49929   0.08896
H          H       0.51958   0.87239   0.38713   0.11306
H          H       0.53512   0.92272   0.49728   0.13181
H          H       0.37384   0.53049   0.72456   0.11736
H          H       0.26161   0.65114   0.75510   0.13286
H          H       0.23137   0.61911   0.63846   0.12659
H          H       0.17973   0.79841   0.85116   0.10197
H          H       0.25288   0.64596   0.03400   0.08685
H          H       0.20975   0.58820   0.93966   0.09710
H          H       0.95696   0.55853   0.05360   0.13217
H          H      -0.00287   0.60708   0.15701   0.11588
H          H       0.13151   0.84176   0.03501   0.12023
H          H       0.00270   0.93063   0.93628   0.11713
H          H       0.94447   0.81007   0.06091   0.12227
C          C       0.56263   0.12716   0.01920   0.09116
C          C       0.67300   0.12558   0.92537  -0.17437
C          C       0.68838   0.22863   0.82580   0.09621
C          C       0.59073   0.32973   0.82906  -0.16994
C          C       0.48243   0.32343   0.92583   0.09943
C          C      -0.00143   0.13539   0.61690   0.11030
C          C       0.89026   0.12846   0.71392  -0.17793
C          C       0.80224   0.23119   0.72268   0.09559
C          C       0.82670   0.33656   0.62839  -0.17470
C          C       0.93594   0.33523   0.53394   0.09101
C          C       0.44801   0.33313   0.29719   0.60024
C          C       0.56884   0.39948   0.29801  -0.05187
C          C       0.65079   0.45858   0.17465  -0.14577
C          C       0.54488   0.54868   0.09078  -0.29763
C          C       0.62673   0.61442   0.97164   0.64142
C          C       0.68109   0.31497   0.37956  -0.38895
C          C       0.03546   0.13761   0.24375   0.58948
C          C       0.90950   0.07720   0.23925  -0.05619
C          C       0.83955   0.00368   0.36268  -0.14937
C          C       0.95159   0.90636   0.43422  -0.29130
C          C       0.88196   0.84021   0.55811   0.63730
C          C       0.96088   0.00733   0.15947  -0.39154
C          C       0.43736   0.98080   0.87284   0.09141
C          C       0.32701   0.07462   0.87442  -0.17409
C          C       0.31162   0.17420   0.77137   0.09604
C          C       0.40927   0.17093   0.67027  -0.16997
C          C       0.51757   0.07416   0.67657   0.09960
C          C       0.00143   0.38309   0.86461   0.11035
C          C       0.10974   0.28608   0.87154  -0.17802
C          C       0.19776   0.27732   0.76881   0.09572
C          C       0.17330   0.37161   0.66344  -0.17472
C          C       0.06405   0.46606   0.66477   0.09106
C          C       0.55198   0.70281   0.66687   0.60042
C          C       0.43115   0.70199   0.60052  -0.05197
C          C       0.34921   0.82535   0.54142  -0.14590
C          C       0.45511   0.90922   0.45132  -0.29749
C          C       0.37326   0.02835   0.38558   0.64160
C          C       0.31891   0.62044   0.68503  -0.38889
C          C       0.96453   0.75625   0.86238   0.58936
C          C       0.09050   0.76075   0.92280  -0.05617
C          C       0.16045   0.63732   0.99632  -0.14948
C          C       0.04840   0.56578   0.09365  -0.29134
C          C       0.11803   0.44189   0.15979   0.63727
C          C       0.03912   0.84053   0.99266  -0.39182
N          N       0.46650   0.22373   0.01971  -0.24645
N          N       0.02276   0.23712   0.52779  -0.25157
N          N       0.53349   0.98029   0.77627  -0.24668
N          N       0.97724   0.47221   0.76287  -0.25163
O          O       0.47161   0.29051   0.21807  -0.55965
O          O       0.33368   0.32389   0.37665  -0.56807
O          O       0.60634   0.72610   0.93627  -0.56227
O          O       0.70974   0.55372   0.91547  -0.55290
O          O       0.13903   0.16349   0.15614  -0.55219
O          O       0.02693   0.15811   0.33601  -0.55936
O          O       0.78472   0.89952   0.60910  -0.55105
O          O       0.92638   0.73051   0.60257  -0.56159
O          O       0.52838   0.78193   0.70949  -0.55960
O          O       0.66632   0.62335   0.67611  -0.56827
O          O       0.39365   0.06373   0.27390  -0.56227
O          O       0.29026   0.08453   0.44628  -0.55301
O          O       0.86097   0.84386   0.83651  -0.55208
O          O       0.97307   0.66399   0.84189  -0.55936
O          O       0.21528   0.39090   0.10048  -0.55117
O          O       0.07362   0.39743   0.26949  -0.56144

