data_crystal

_audit_creation_method 'AiiDA-DDEC plugin'

_cell_length_a         7.84945
_cell_length_b        13.84967
_cell_length_c        16.19121

_cell_angle_alpha     90.00000
_cell_angle_beta     99.32940
_cell_angle_gamma     90.00000

_symmetry_space_group_name_Hall 'P 1'
_symmetry_space_group_name_H-M  'P 1'

loop_
_symmetry_equiv_pos_as_xyz
 'x,y,z'

loop_
_atom_site_label
_atom_site_type_symbol
_atom_site_fract_x
_atom_site_fract_y
_atom_site_fract_z
_atom_site_charge
Cu         Cu      0.82375   0.39895   0.55505   1.01679
Cu         Cu      0.47489   0.45502   0.41351   1.03138
Cu         Cu      0.67625   0.89895   0.94494   1.01675
Cu         Cu      0.02511   0.95502   0.08649   1.03141
Cu         Cu      0.17625   0.60105   0.44495   1.01669
Cu         Cu      0.52511   0.54498   0.58649   1.03136
Cu         Cu      0.32375   0.10105   0.05505   1.01675
Cu         Cu      0.97489   0.04498   0.91351   1.03130
H          H       0.73464   0.55629   0.47672   0.40004
H          H       0.22961   0.54069   0.70903   0.12494
H          H       0.80650   0.11301   0.27656   0.27708
H          H       0.62430   0.07334   0.30370   0.29226
H          H       0.43901   0.63645   0.80919   0.12439
H          H       0.82111   0.72987   0.75491   0.12362
H          H       0.46336   0.23995   0.30480   0.14405
H          H       0.95772   0.20212   0.45095   0.15068
H          H       0.76535   0.05629   0.02328   0.40008
H          H       0.27039   0.04069   0.79096   0.12495
H          H       0.69349   0.61301   0.22344   0.27710
H          H       0.87569   0.57334   0.19630   0.29218
H          H       0.06098   0.13645   0.69081   0.12446
H          H       0.67889   0.22987   0.74509   0.12344
H          H       0.03664   0.73995   0.19520   0.14396
H          H       0.54228   0.70213   0.04905   0.15076
H          H       0.26535   0.44371   0.52328   0.40005
H          H       0.77039   0.45931   0.29096   0.12495
H          H       0.19349   0.88700   0.72344   0.27706
H          H       0.37569   0.92666   0.69630   0.29224
H          H       0.56098   0.36355   0.19081   0.12450
H          H       0.17889   0.27013   0.24509   0.12345
H          H       0.53664   0.76005   0.69520   0.14396
H          H       0.04228   0.79788   0.54904   0.15076
H          H       0.23465   0.94371   0.97672   0.40008
H          H       0.72961   0.95931   0.20904   0.12495
H          H       0.30651   0.38700   0.77656   0.27709
H          H       0.12431   0.42666   0.80370   0.29233
H          H       0.93901   0.86355   0.30919   0.12441
H          H       0.32111   0.77014   0.25491   0.12353
H          H       0.96335   0.26005   0.80480   0.14405
H          H       0.45772   0.29788   0.95095   0.15066
C          C       0.88268   0.56988   0.66891   0.60192
C          C       0.01141   0.62902   0.72598  -0.03677
C          C       0.18622   0.60258   0.74144  -0.10902
C          C       0.30359   0.65732   0.79614  -0.10809
C          C       0.25031   0.74055   0.83452  -0.05996
C          C       0.37897   0.79939   0.89261   0.56175
C          C       0.07491   0.76731   0.81820  -0.02900
C          C       0.00434   0.85495   0.85587   0.60186
C          C       0.95707   0.71071   0.76523  -0.12470
C          C       0.57691   0.25134   0.35138   0.06412
C          C       0.83268   0.23223   0.42633   0.08005
C          C       0.61732   0.06988   0.83109   0.60193
C          C       0.48859   0.12902   0.77402  -0.03669
C          C       0.31378   0.10258   0.75856  -0.10899
C          C       0.19640   0.15732   0.70386  -0.10813
C          C       0.24969   0.24055   0.66548  -0.06001
C          C       0.12103   0.29939   0.60739   0.56157
C          C       0.42509   0.26731   0.68180  -0.02892
C          C       0.49566   0.35495   0.64413   0.60209
C          C       0.54292   0.21071   0.73476  -0.12463
C          C       0.92309   0.75134   0.14862   0.06408
C          C       0.66731   0.73223   0.07367   0.08009
C          C       0.11732   0.43012   0.33109   0.60178
C          C       0.98859   0.37098   0.27402  -0.03671
C          C       0.81378   0.39742   0.25856  -0.10898
C          C       0.69640   0.34269   0.20386  -0.10816
C          C       0.74968   0.25945   0.16548  -0.05997
C          C       0.62103   0.20061   0.10739   0.56161
C          C       0.92509   0.23269   0.18180  -0.02893
C          C       0.99566   0.14505   0.14413   0.60195
C          C       0.04292   0.28929   0.23476  -0.12462
C          C       0.42309   0.74866   0.64862   0.06415
C          C       0.16731   0.76777   0.57367   0.08017
C          C       0.38268   0.93012   0.16891   0.60196
C          C       0.51141   0.87098   0.22598  -0.03674
C          C       0.68622   0.89742   0.24144  -0.10893
C          C       0.80359   0.84269   0.29614  -0.10812
C          C       0.75031   0.75945   0.33452  -0.06001
C          C       0.87897   0.70061   0.39261   0.56170
C          C       0.57490   0.73269   0.31820  -0.02893
C          C       0.50434   0.64505   0.35587   0.60202
C          C       0.45707   0.78929   0.26524  -0.12465
C          C       0.07691   0.24866   0.85138   0.06419
C          C       0.33269   0.26777   0.92633   0.08017
N          N       0.76724   0.31369   0.44987  -0.19871
N          N       0.60550   0.32506   0.40367  -0.19879
N          N       0.71702   0.19119   0.36416   0.20469
N          N       0.74260   0.10208   0.32656  -0.52083
N          N       0.73275   0.81369   0.05013  -0.19863
N          N       0.89450   0.82506   0.09633  -0.19888
N          N       0.78298   0.69119   0.13584   0.20465
N          N       0.75739   0.60208   0.17344  -0.52077
N          N       0.23275   0.68631   0.55013  -0.19857
N          N       0.39450   0.67494   0.59633  -0.19897
N          N       0.28298   0.80881   0.63584   0.20461
N          N       0.25739   0.89792   0.67344  -0.52073
N          N       0.26724   0.18631   0.94987  -0.19883
N          N       0.10550   0.17494   0.90367  -0.19886
N          N       0.21702   0.30881   0.86416   0.20467
N          N       0.24260   0.39792   0.82656  -0.52087
O          O       0.67165   0.50055   0.49661  -0.93347
O          O       0.72607   0.59958   0.65885  -0.58014
O          O       0.94155   0.49538   0.63735  -0.56890
O          O       0.90751   0.83777   0.90878  -0.60419
O          O       0.04161   0.93825   0.82898  -0.59513
O          O       0.33401   0.84261   0.95405  -0.55978
O          O       0.53394   0.80002   0.87546  -0.57215
O          O       0.82835   0.00055   0.00339  -0.93347
O          O       0.77392   0.09957   0.84114  -0.58027
O          O       0.55845   0.99538   0.86265  -0.56881
O          O       0.59248   0.33777   0.59122  -0.60425
O          O       0.45839   0.43825   0.67102  -0.59532
O          O       0.16599   0.34261   0.54595  -0.55961
O          O       0.96605   0.30002   0.62454  -0.57208
O          O       0.32835   0.49946   0.50339  -0.93346
O          O       0.27392   0.40043   0.34114  -0.58020
O          O       0.05845   0.50462   0.36265  -0.56877
O          O       0.09248   0.16223   0.09122  -0.60418
O          O       0.95839   0.06175   0.17102  -0.59529
O          O       0.66599   0.15739   0.04595  -0.55968
O          O       0.46606   0.19998   0.12454  -0.57205
O          O       0.17165  -0.00054   0.99661  -0.93351
O          O       0.22607   0.90043   0.15886  -0.58025
O          O       0.44155   0.00462   0.13735  -0.56884
O          O       0.40751   0.66223   0.40878  -0.60418
O          O       0.54161   0.56175   0.32898  -0.59534
O          O       0.83401   0.65739   0.45405  -0.55971
O          O       0.03394   0.69998   0.37546  -0.57214

