data_crystal

_audit_creation_method 'AiiDA-DDEC plugin'

_cell_length_a        10.74679
_cell_length_b        12.56052
_cell_length_c        12.56240

_cell_angle_alpha     92.13689
_cell_angle_beta     92.96542
_cell_angle_gamma     92.92841

_symmetry_space_group_name_Hall 'P 1'
_symmetry_space_group_name_H-M  'P 1'

loop_
_symmetry_equiv_pos_as_xyz
 'x,y,z'

loop_
_atom_site_label
_atom_site_type_symbol
_atom_site_fract_x
_atom_site_fract_y
_atom_site_fract_z
_atom_site_charge
Cd         Cd      0.75027   0.14121   0.85895   0.94893
Cd         Cd      0.50000   0.00000   0.00000   1.11813
Cd         Cd      0.24974   0.85879   0.14106   0.94891
Cd         Cd      0.00000   0.00000   0.00000   1.11826
H          H       0.00385   0.17034   0.42555   0.10871
H          H       0.01607   0.09754   0.75846   0.09874
H          H       0.51907   0.70023   0.67591   0.10637
H          H       0.48421   0.24170   0.90251   0.09839
H          H       0.66241   0.41137   0.11145   0.09998
H          H       0.12870   0.89195   0.69824   0.10934
H          H       0.31679   0.81746   0.38447   0.09222
H          H       0.45651   0.77613   0.85086   0.10521
H          H       0.02319   0.56391   0.07897   0.10098
H          H       0.01904   0.67586   0.70023   0.10630
H          H       0.54349   0.22387   0.14914   0.10513
H          H       0.95642   0.85084   0.77613   0.10535
H          H       0.62881   0.69828   0.89193   0.10934
H          H       0.97682   0.43609   0.92103   0.10099
H          H       0.51579   0.75830   0.09750   0.09834
H          H       0.87130   0.10805   0.30177   0.10939
H          H       0.88633   0.39789   0.09221   0.11540
H          H       0.33760   0.58862   0.88855   0.09999
H          H       0.50374   0.42540   0.17040   0.10876
H          H       0.61377   0.90781   0.60207   0.11559
H          H       0.49626   0.57460   0.82961   0.10869
H          H       0.68321   0.18254   0.61553   0.09223
H          H       0.38364   0.71847   0.51252   0.11239
H          H       0.38623   0.09219   0.39793   0.11547
H          H       0.98096   0.32414   0.29978   0.10633
H          H       0.61637   0.28153   0.48749   0.11242
H          H       0.88370   0.51247   0.71847   0.11255
H          H       0.37119   0.30172   0.10807   0.10929
H          H       0.99615   0.82966   0.57446   0.10872
H          H       0.18305   0.61559   0.18252   0.09247
H          H       0.79015   0.89180   0.24337   0.12163
H          H       0.47657   0.92101   0.43615   0.10146
H          H       0.81695   0.38441   0.81748   0.09244
H          H       0.16235   0.11142   0.41160   0.09993
H          H       0.11367   0.60210   0.90780   0.11533
H          H       0.20985   0.10820   0.75664   0.12171
H          H       0.83765   0.88858   0.58841   0.10007
H          H       0.48093   0.29977   0.32410   0.10633
H          H       0.52343   0.07899   0.56386   0.10153
H          H       0.29073   0.24352   0.89177   0.12182
H          H       0.70927   0.75647   0.10824   0.12178
H          H       0.04358   0.14916   0.22388   0.10532
H          H       0.11630   0.48753   0.28153   0.11257
H          H       0.98393   0.90246   0.24154   0.09869
C          C       0.75454   0.19381   0.40711   0.05486
C          C       0.42430   0.08965   0.56829  -0.09936
C          C       0.57570   0.91034   0.43172  -0.09924
C          C       0.21160   0.84663   0.69231  -0.13589
C          C       0.33209   0.50441   0.17503   0.03499
C          C       0.54173   0.92066   0.23427   0.57297
C          C       0.77967   0.89154   0.51528  -0.11947
C          C       0.95982   0.15925   0.50046  -0.14234
C          C       0.15240   0.52377   0.90284  -0.08078
C          C       0.75475   0.12341   0.10927   0.61472
C          C       0.83292   0.88515   0.41511   0.05016
C          C       0.24555   0.10566   0.67705  -0.13306
C          C       0.45967   0.50033   0.15927  -0.14164
C          C       0.74527   0.89078   0.87656   0.61518
C          C       0.25473   0.32303   0.89434  -0.13401
C          C       0.85657   0.58846   0.75182  -0.12182
C          C       0.71441   0.16615   0.21465  -0.03173
C          C       0.71168   0.69234   0.84662  -0.13614
C          C       0.95826   0.76568   0.07919   0.57301
C          C       0.12681   0.33125   0.90761  -0.03567
C          C       0.66693   0.58474   0.11487   0.05009
C          C       0.04018   0.84075   0.49954  -0.14214
C          C       0.03120   0.87842   0.31470   0.02677
C          C       0.78840   0.15337   0.30770  -0.13586
C          C       0.65236   0.90287   0.52371  -0.08147
C          C       0.22033   0.10846   0.48473  -0.11956
C          C       0.60285   0.21840   0.22115  -0.09738
C          C       0.43210   0.74053   0.68066  -0.08327
C          C       0.25444   0.40708   0.19385   0.05506
C          C       0.14343   0.41153   0.24818  -0.12187
C          C       0.93210   0.68063   0.74051  -0.08291
C          C       0.27972   0.51544   0.89151  -0.11923
C          C       0.46856   0.68516   0.12154   0.02697
C          C       0.35652   0.75186   0.58848  -0.12140
C          C       0.34764   0.09712   0.47629  -0.08140
C          C       0.71924   0.39540   0.83099   0.02161
C          C       0.56790   0.25947   0.31935  -0.08326
C          C       0.28076   0.60460   0.16901   0.02148
C          C       0.16776   0.82500   0.49553   0.03551
C          C       0.96880   0.12158   0.68530   0.02692
C          C       0.37344   0.09246   0.66871  -0.03707
C          C       0.53161   0.59041   0.13133   0.03924
C          C       0.21906   0.83098   0.39536   0.02176
C          C       0.28832   0.30766   0.15338  -0.13614
C          C       0.16708   0.11484   0.58490   0.05020
C          C       0.78094   0.16902   0.60464   0.02144
C          C       0.45827   0.07934   0.76574   0.57306
C          C       0.24525   0.87658   0.89074   0.61457
C          C       0.89712   0.77883   0.78159  -0.09788
C          C       0.62656   0.90754   0.33130  -0.03710
C          C       0.28559   0.83385   0.78536  -0.03169
C          C       0.74556   0.59292   0.80616   0.05498
C          C       0.83224   0.17500   0.50447   0.03568
C          C       0.25474   0.10922   0.12344   0.61527
C          C       0.87319   0.66875   0.09239  -0.03565
C          C       0.92408   0.56829   0.08965  -0.09988
C          C       0.24546   0.80619   0.59289   0.05491
C          C       0.46839   0.40958   0.86868   0.03917
C          C       0.54033   0.49967   0.84073  -0.14169
C          C       0.03179   0.13133   0.59058   0.03953
C          C       0.06790   0.31937   0.25950  -0.08289
C          C       0.39715   0.78159   0.77886  -0.09731
C          C       0.66791   0.49559   0.82497   0.03490
C          C       0.72028   0.48456   0.10849  -0.11915
C          C       0.78563   0.78537   0.83386  -0.03123
C          C       0.96821   0.86867   0.40942   0.03954
C          C       0.21438   0.21463   0.16615  -0.03131
C          C       0.10288   0.22116   0.21842  -0.09777
C          C       0.64348   0.24814   0.41152  -0.12139
C          C       0.07592   0.43171   0.91036  -0.09987
C          C       0.75445   0.89434   0.32296  -0.13309
C          C       0.53144   0.31484   0.87846   0.02701
C          C       0.04174   0.23432   0.92081   0.57303
C          C       0.33308   0.41526   0.88513   0.05020
C          C       0.74528   0.67697   0.10566  -0.13391
C          C       0.84760   0.47623   0.09716  -0.08076
N          N       0.15224   0.85710   0.30772  -0.22268
N          N       0.34754   0.69221   0.14284  -0.22246
N          N       0.84777   0.14290   0.69228  -0.22239
N          N       0.65246   0.30779   0.85717  -0.22241
O          O       0.82443   0.97179   0.87234  -0.61894
O          O       0.59325   0.92974   0.14507  -0.56132
O          O       0.86316   0.09021   0.10657  -0.55841
O          O       0.42557   0.92103   0.24817  -0.57871
O          O       0.07438   0.75154   0.07882  -0.57797
O          O       0.90699   0.85505   0.07026  -0.56141
O          O       0.92562   0.24845   0.92118  -0.57799
O          O       0.36306   0.10649   0.09020  -0.55857
O          O       0.40675   0.07026   0.85493  -0.56123
O          O       0.63695   0.89351   0.90980  -0.55853
O          O       0.57443   0.07897   0.75184  -0.57878
O          O       0.17557   0.02821   0.12766  -0.61894
O          O       0.13685   0.90979   0.89344  -0.55844
O          O       0.32438   0.87240   0.97180  -0.61866
O          O       0.67562   0.12760   0.02820  -0.61881
O          O       0.09301   0.14495   0.92974  -0.56139

