data_crystal

_audit_creation_method 'AiiDA-DDEC plugin'

_cell_length_a        13.17436
_cell_length_b        13.17441
_cell_length_c        14.83562

_cell_angle_alpha     90.00000
_cell_angle_beta     90.00000
_cell_angle_gamma     120.35434

_symmetry_space_group_name_Hall 'P 1'
_symmetry_space_group_name_H-M  'P 1'

loop_
_symmetry_equiv_pos_as_xyz
 'x,y,z'

loop_
_atom_site_label
_atom_site_type_symbol
_atom_site_fract_x
_atom_site_fract_y
_atom_site_fract_z
_atom_site_charge
Mg         Mg      0.17678   0.53837   0.25000   1.57705
Mg         Mg      0.36245   0.82271   0.25000   1.57775
Mg         Mg      0.46061   0.63792   0.25000   1.57666
Mg         Mg      0.63792   0.46061   0.75000   1.57669
Mg         Mg      0.53837   0.17678   0.75000   1.57703
Mg         Mg      0.82272   0.36245   0.75000   1.57775
Cu         Cu     -0.00248  -0.00248   0.50000   0.34736
Cu         Cu     -0.00248  -0.00248  -0.00000   0.34733
H          H       0.13515   0.90765   0.40256   0.10552
H          H       0.77557   0.87033   0.40185   0.10405
H          H       0.09164   0.22416   0.40289   0.10527
H          H       0.13515   0.90765   0.09744   0.10552
H          H       0.77557   0.87033   0.09815   0.10406
H          H       0.09164   0.22416   0.09711   0.10530
H          H       0.22416   0.09165   0.59712   0.10530
H          H       0.90765   0.13516   0.59744   0.10566
H          H       0.87032   0.77557   0.59815   0.10408
H          H       0.22416   0.09165   0.90289   0.10523
H          H       0.90765   0.13516   0.90256   0.10552
H          H       0.87032   0.77557   0.90185   0.10401
H          H      -0.00065   0.55460   0.49972   0.14634
H          H       0.55460  -0.00065   0.50029   0.14633
H          H       0.44482   0.44482   0.50000   0.14663
H          H      -0.00065   0.55460   0.00028   0.14632
H          H       0.55460  -0.00065  -0.00028   0.14632
H          H       0.44482   0.44482   0.00000   0.14661
C          C       0.07503   0.83453   0.44511   0.05875
C          C       0.07351   0.72797   0.44091  -0.05665
C          C       0.14998   0.71265   0.37268   0.62324
C          C       0.76199   0.92948   0.44465   0.05514
C          C       0.65556   0.92808   0.44106  -0.05619
C          C       0.56378   0.85061   0.37273   0.62215
C          C       0.16481   0.23764   0.44525   0.05659
C          C       0.27129   0.34395   0.44117  -0.05578
C          C       0.28639   0.43583   0.37280   0.62309
C          C       0.07503   0.83453   0.05490   0.05882
C          C       0.07351   0.72797   0.05909  -0.05663
C          C       0.14998   0.71265   0.12732   0.62322
C          C       0.76199   0.92948   0.05535   0.05516
C          C       0.65556   0.92808   0.05895  -0.05620
C          C       0.56378   0.85061   0.12727   0.62210
C          C       0.16481   0.23764   0.05475   0.05651
C          C       0.27129   0.34395   0.05884  -0.05562
C          C       0.28639   0.43583   0.12720   0.62299
C          C       0.23764   0.16482   0.55475   0.05667
C          C       0.34395   0.27129   0.55884  -0.05555
C          C       0.43583   0.28639   0.62720   0.62295
C          C       0.83454   0.07504   0.55490   0.05873
C          C       0.72797   0.07351   0.55909  -0.05645
C          C       0.71265   0.14998   0.62733   0.62300
C          C       0.92948   0.76199   0.55535   0.05538
C          C       0.92808   0.65556   0.55895  -0.05633
C          C       0.85061   0.56378   0.62727   0.62217
C          C       0.23764   0.16482   0.94526   0.05665
C          C       0.34395   0.27129   0.94117  -0.05579
C          C       0.43583   0.28639   0.87281   0.62314
C          C       0.83454   0.07504   0.94511   0.05881
C          C       0.72797   0.07351   0.94091  -0.05649
C          C       0.71265   0.14998   0.87268   0.62314
C          C       0.92948   0.76199   0.94466   0.05535
C          C       0.92808   0.65556   0.94106  -0.05619
C          C       0.85061   0.56378   0.87273   0.62215
C          C       0.00018   0.63764   0.49985  -0.04643
C          C       0.63764   0.00018   0.50016  -0.04653
C          C       0.36172   0.36172   0.50000  -0.04856
C          C       0.00018   0.63764   0.00015  -0.04638
C          C       0.63764   0.00018  -0.00015  -0.04641
C          C       0.36172   0.36172   0.00000  -0.04838
N          N       0.00306   0.85143   0.50039  -0.22084
N          N       0.85144   0.00307   0.49961  -0.22087
N          N       0.14826   0.14826   0.50000  -0.21511
N          N       0.00306   0.85143  -0.00039  -0.22082
N          N       0.85144   0.00307   0.00039  -0.22082
N          N       0.14826   0.14826   0.00000  -0.21499
O          O       0.11583   0.60720   0.34988  -0.64800
O          O       0.23872   0.80721   0.34503  -0.65725
O          O       0.49234   0.88400   0.34974  -0.64576
O          O       0.56987   0.76252   0.34515  -0.65431
O          O       0.39187   0.50767   0.34982  -0.64804
O          O       0.19206   0.42956   0.34519  -0.65570
O          O       0.11583   0.60720   0.15012  -0.64799
O          O       0.23872   0.80721   0.15497  -0.65725
O          O       0.49234   0.88400   0.15026  -0.64571
O          O       0.56987   0.76252   0.15485  -0.65427
O          O       0.39187   0.50767   0.15018  -0.64799
O          O       0.19206   0.42956   0.15481  -0.65566
O          O       0.50767   0.39187   0.65018  -0.64792
O          O       0.42956   0.19206   0.65481  -0.65569
O          O       0.60720   0.11583   0.65013  -0.64790
O          O       0.80721   0.23872   0.65497  -0.65712
O          O       0.88400   0.49234   0.65026  -0.64576
O          O       0.76252   0.56987   0.65485  -0.65426
O          O       0.50767   0.39187   0.84982  -0.64804
O          O       0.42956   0.19206   0.84519  -0.65572
O          O       0.60720   0.11583   0.84988  -0.64802
O          O       0.80721   0.23872   0.84503  -0.65718
O          O       0.88400   0.49234   0.84974  -0.64581
O          O       0.76252   0.56987   0.84516  -0.65430
O          O       0.33341   0.66648   0.25000  -1.27295
O          O       0.66648   0.33341   0.75000  -1.27297

