data_crystal

_audit_creation_method 'AiiDA-DDEC plugin'

_cell_length_a         9.58859
_cell_length_b        13.16304
_cell_length_c        14.61674

_cell_angle_alpha     89.99422
_cell_angle_beta     90.31632
_cell_angle_gamma     89.99133

_symmetry_space_group_name_Hall 'P 1'
_symmetry_space_group_name_H-M  'P 1'

loop_
_symmetry_equiv_pos_as_xyz
 'x,y,z'

loop_
_atom_site_label
_atom_site_type_symbol
_atom_site_fract_x
_atom_site_fract_y
_atom_site_fract_z
_atom_site_charge
Gd         Gd      0.24998   0.00214   0.10888   2.08038
Gd         Gd      0.24657   0.50225   0.39139   2.08196
Gd         Gd      0.74672  -0.00207   0.89134   2.08056
Gd         Gd      0.74828   0.49767   0.60878   2.08075
H          H       0.10513   0.25224   0.33701   0.13005
H          H       0.81993   0.19178   0.55713   0.13302
H          H       0.88608   0.96743   0.34526   0.13722
H          H       0.82426   0.95037   0.55653   0.11906
H          H       0.69371   0.04139   0.56241   0.12282
H          H       0.61151   0.03438   0.35031   0.13634
H          H       0.38318   0.75374   0.34255   0.13041
H          H       0.69080   0.80275   0.55419   0.13079
H          H       0.39198   0.75211   0.16405   0.12937
H          H       0.67851   0.69219   0.94465   0.13215
H          H       0.60961   0.46659   0.15513   0.13694
H          H       0.67344   0.45089   0.94414   0.11867
H          H       0.80394   0.54202   0.93894   0.12228
H          H       0.88680   0.53421   0.15030   0.13570
H          H       0.11542   0.25368   0.15739   0.13117
H          H       0.80738   0.30307   0.94605   0.13124
H          H       0.89133   0.74831   0.66418   0.12898
H          H       0.17855   0.80749   0.44499   0.13234
H          H       0.10951   0.03347   0.65514   0.13703
H          H       0.17357   0.04899   0.44420   0.11838
H          H       0.30394   0.95767   0.43886   0.12165
H          H       0.38681   0.96579   0.65040   0.13582
H          H       0.61539   0.24629   0.65728   0.13099
H          H       0.30776   0.19672   0.44577   0.13093
H          H       0.60441   0.24713   0.83720   0.12907
H          H       0.31918   0.30844   0.05712   0.13242
H          H       0.38594   0.53226   0.84482   0.13761
H          H       0.32301   0.54996   0.05520   0.11894
H          H       0.19238   0.45901   0.06157   0.12260
H          H       0.10768   0.46574   0.84944   0.13551
H          H       0.88113   0.74729   0.84295   0.13040
H          H       0.19141   0.69722   0.05268   0.13086
C          C       0.00053   0.10644   0.33286  -0.00531
C          C       0.03003   0.20264   0.37042  -0.08512
C          C       0.96162   0.23395   0.45026  -0.03540
C          C       0.87099   0.16715   0.49455  -0.12105
C          C       0.84453   0.06953   0.45905   0.14272
C          C       0.90652   0.04136   0.37595  -0.13851
C          C       0.75574   0.99746   0.51269  -0.25758
C          C       0.65974   0.92854   0.46049   0.14202
C          C       0.59124   0.96009   0.38022  -0.13660
C          C       0.49241   0.89723   0.33842  -0.00692
C          C       0.46218   0.80112   0.37517  -0.09021
C          C       0.53647   0.76656   0.45208  -0.03289
C          C       0.63390   0.83029   0.49445  -0.11994
C          C       0.07735   0.07181   0.24949   0.54476
C          C       0.98234   0.33903   0.48704   0.65434
C          C       0.41437   0.93332   0.25564   0.54346
C          C       0.51561   0.66115   0.48753   0.65462
C          C       0.49558   0.60599   0.16771  -0.00652
C          C       0.46693   0.70252   0.13050  -0.08278
C          C       0.53599   0.73413   0.05101  -0.03869
C          C       0.62688   0.66737   0.00695  -0.11872
C          C       0.65270   0.56948   0.04213   0.14217
C          C       0.58971   0.54080   0.12477  -0.13764
C          C       0.74180   0.49769   0.98830  -0.25734
C          C       0.83807   0.42850   0.04015   0.14054
C          C       0.90701   0.45995   0.12029  -0.13344
C          C       0.00631   0.39712   0.16172  -0.00807
C          C       0.03620   0.30102   0.12496  -0.09293
C          C       0.96155   0.26647   0.04817  -0.03173
C          C       0.86412   0.33040   0.00592  -0.12280
C          C       0.41771   0.57158   0.25061   0.54484
C          C       0.51478   0.83887   0.01347   0.65705
C          C       0.08455   0.43313   0.24439   0.54456
C          C       0.98251   0.16115   0.01252   0.65230
C          C       0.99528   0.89420   0.66760  -0.00566
C          C       0.96652   0.79766   0.63058  -0.08444
C          C       0.03570   0.76593   0.55122  -0.03715
C          C       0.12681   0.83257   0.50716  -0.11983
C          C       0.15289   0.93045   0.54224   0.14139
C          C       0.08971   0.95925   0.62477  -0.13728
C          C       0.24202   0.00212   0.48827  -0.25519
C          C       0.33838   0.07128   0.54004   0.14048
C          C       0.40717   0.03995   0.62024  -0.13548
C          C       0.50634   0.10284   0.66167  -0.00677
C          C       0.53635   0.19889   0.62477  -0.09261
C          C       0.46188   0.23327   0.54784  -0.03240
C          C       0.36445   0.16934   0.50566  -0.12038
C          C       0.91742   0.92854   0.75052   0.54517
C          C       0.01436   0.66115   0.51386   0.65555
C          C       0.58453   0.06690   0.74439   0.54394
C          C       0.48249   0.33870   0.51229   0.65301
C          C       0.50040   0.39298   0.83285  -0.00398
C          C       0.52957   0.29690   0.87061  -0.08680
C          C       0.46108   0.26581   0.95043  -0.03437
C          C       0.37022   0.33276   0.99442  -0.11950
C          C       0.34375   0.43026   0.95853   0.14195
C          C       0.40633   0.45835   0.87561  -0.13897
C          C       0.25450   0.50256   0.01165  -0.25782
C          C       0.15837   0.57148   0.95929   0.14178
C          C       0.08837   0.54011   0.87946  -0.13417
C          C       0.98897   0.60322   0.83824  -0.00905
C          C       0.96030   0.69956   0.87498  -0.09145
C          C       0.03625   0.73398   0.95130  -0.03202
C          C       0.13365   0.66985   0.99323  -0.12351
C          C       0.57695   0.42668   0.74927   0.54576
C          C       0.48229   0.16091   0.98757   0.65399
C          C       0.90950   0.56710   0.75589   0.54572
C          C       0.01615   0.83925   0.98724   0.65398
O          O       0.02885   0.00076   0.20003  -0.57499
O          O       0.19412   0.11573   0.23166  -0.61915
O          O       0.08992   0.38868   0.46392  -0.60730
O          O       0.88963   0.37377   0.54053  -0.58748
O          O       0.46388   0.00520   0.20808  -0.57413
O          O       0.29805   0.88958   0.23588  -0.62433
O          O       0.40114   0.61581   0.47217  -0.59199
O          O       0.61558   0.62130   0.53237  -0.58991
O          O       0.46512   0.50015   0.30010  -0.57716
O          O       0.30129   0.61601   0.26825  -0.61679
O          O       0.40753   0.88875   0.03651  -0.60583
O          O       0.60626   0.87330   0.95892  -0.59269
O          O       0.03515   0.50517   0.29188  -0.57883
O          O       0.20094   0.38948   0.26418  -0.62462
O          O       0.09726   0.11598   0.02774  -0.59006
O          O       0.88261   0.12131   0.96758  -0.58257
O          O       0.96510  -0.00004   0.79989  -0.57846
O          O       0.80110   0.88408   0.76827  -0.61865
O          O       0.90731   0.61110   0.53690  -0.60250
O          O       0.10546   0.62661   0.45908  -0.59099
O          O       0.53509   0.99490   0.79188  -0.57744
O          O       0.70087   0.11059   0.76418  -0.62461
O          O       0.59717   0.38390   0.52758  -0.59223
O          O       0.38251   0.37870   0.46758  -0.58352
O          O       0.52779   0.49697   0.69933  -0.57629
O          O       0.69407   0.38333   0.73154  -0.61595
O          O       0.59011   0.11135   0.96492  -0.60715
O          O       0.38958   0.12633   0.04114  -0.59132
O          O       0.95836   0.49489   0.70835  -0.58129
O          O       0.79295   0.61063   0.73619  -0.62401
O          O       0.90158   0.88463   0.97226  -0.59116
O          O       0.11638   0.87860   0.03229  -0.58808

