data_crystal

_audit_creation_method 'AiiDA-DDEC plugin'

_cell_length_a        11.80134
_cell_length_b        11.78553
_cell_length_c        13.60565

_cell_angle_alpha     110.32425
_cell_angle_beta     90.06271
_cell_angle_gamma     119.86097

_symmetry_space_group_name_Hall 'P 1'
_symmetry_space_group_name_H-M  'P 1'

loop_
_symmetry_equiv_pos_as_xyz
 'x,y,z'

loop_
_atom_site_label
_atom_site_type_symbol
_atom_site_fract_x
_atom_site_fract_y
_atom_site_fract_z
_atom_site_charge
Zn         Zn      0.33622   0.72006   0.75747   0.76858
Zn         Zn      0.38475   0.72208   0.25825   0.76715
H          H       0.53247   0.43173   0.17227   0.11933
H          H       0.15599   0.20985   0.95535   0.11662
H          H       0.19785   0.01520   0.85095   0.10920
H          H       0.38611   0.55318   0.53245   0.12147
H          H       0.57198   0.99165   0.72868   0.12785
H          H       0.70553   0.96041   0.56153   0.12875
H          H       0.60855   0.71985   0.36999   0.11957
H          H       0.52080   0.55770   0.38781   0.11475
H          H       0.64080   0.50425   0.50235   0.10775
H          H       0.85812   0.54424   0.57259   0.10025
H          H       0.06809   0.92041   0.50570   0.11550
H          H       0.85131   0.88040   0.43524   0.10812
H          H       0.09886   0.70233   0.63811   0.11823
H          H       0.18696   0.86907   0.62710   0.11496
H          H       0.33028   0.88299   0.48611   0.11773
H          H       0.14347   0.44894   0.27654   0.13247
H          H       0.00553   0.47156   0.44252   0.12950
H          H       0.62009   0.17284   0.02414   0.30999
H          H       0.67584   0.33637   0.13442   0.30944
H          H       0.90056   0.43295   0.67173   0.11981
H          H       0.05238   0.20683   0.45448   0.11681
H          H       0.81608   0.01408   0.35041   0.10947
H          H       0.16714   0.55331   0.03570   0.12162
H          H       0.41915   0.99334   0.22643   0.12794
H          H       0.25271   0.95783   0.05786   0.12815
H          H       0.10847   0.71435   0.86851   0.12055
H          H       0.03490   0.55431   0.88930   0.11408
H          H       0.86249   0.50263   0.00224   0.10851
H          H       0.68609   0.54426   0.07265   0.10061
H          H       0.85262   0.92096   0.00615   0.11557
H          H       0.02855   0.87940   0.93561   0.10894
H          H       0.60518   0.70558   0.13928   0.11955
H          H       0.68339   0.87130   0.12626   0.11535
H          H       0.55264   0.88232   0.98302   0.12154
H          H       0.30616   0.44680   0.77825   0.13190
H          H       0.46714   0.47255   0.94603   0.12885
H          H       0.55295   0.17391   0.52417   0.31010
H          H       0.66110   0.33834   0.63351   0.30913
C          C       0.40699   0.99486   0.88987   0.55807
C          C       0.38812   0.11376   0.95212  -0.17249
C          C       0.48580   0.23325   0.04426   0.28866
C          C       0.45978   0.34023   0.10133  -0.24990
C          C       0.34220   0.33087   0.06939  -0.00976
C          C       0.24610   0.21329   0.97855  -0.16015
C          C       0.27026   0.10724   0.92169  -0.09387
C          C       0.31785   0.44765   0.12870   0.54902
C          C       0.45464   0.66784   0.56304   0.07899
C          C       0.55351   0.89692   0.66207  -0.04167
C          C       0.62035   0.88258   0.58080  -0.10588
C          C       0.60028   0.67079   0.42700  -0.12573
C          C       0.73158   0.68967   0.46404   0.07824
C          C       0.73447   0.59563   0.50318  -0.13831
C          C       0.85631   0.61872   0.54354  -0.13758
C          C       0.97751   0.73614   0.54557   0.08206
C          C       0.97467   0.82969   0.50571  -0.13714
C          C       0.85273   0.80656   0.46520  -0.13024
C          C       0.10895   0.75604   0.58404  -0.12405
C          C       0.26073   0.76833   0.45139   0.07818
C          C       0.16109   0.54106   0.34568  -0.04636
C          C       0.09237   0.55131   0.42617  -0.10866
C          C       0.58861   0.99547   0.38979   0.55761
C          C       0.72589   0.11419   0.45194  -0.17417
C          C       0.74765   0.23405   0.54395   0.29038
C          C       0.88049   0.34054   0.60080  -0.25163
C          C       0.98827   0.33013   0.56891  -0.00926
C          C       0.96663   0.21196   0.47814  -0.16062
C          C       0.83664   0.10661   0.42137  -0.09401
C          C       0.12894   0.44681   0.62867   0.54853
C          C       0.21284   0.66780   0.06432   0.07688
C          C       0.34275   0.89763   0.16069  -0.04192
C          C       0.26077   0.88127   0.07876  -0.10482
C          C       0.06870   0.66768   0.92688  -0.12443
C          C       0.95705   0.68803   0.96395   0.07801
C          C       0.86034   0.59438   0.00311  -0.13855
C          C       0.76221   0.61852   0.04365  -0.13734
C          C       0.75902   0.73668   0.04593   0.08154
C          C       0.85515   0.82983   0.00602  -0.13655
C          C       0.95335   0.80565   0.96536  -0.13102
C          C       0.64818   0.75790   0.08441  -0.12495
C          C       0.50776   0.76767   0.95022   0.07299
C          C       0.38070   0.53972   0.84672  -0.04262
C          C       0.45987   0.55149   0.92807  -0.11186
N          N       0.45045   0.76234   0.65031  -0.28755
N          N       0.55620   0.73730   0.51858   0.05982
N          N       0.26585   0.67712   0.36224  -0.28361
N          N       0.15663   0.69531   0.49236   0.05985
N          N       0.60024   0.24220   0.07929  -0.62433
N          N       0.31187   0.76374   0.15094  -0.28559
N          N       0.17987   0.73561   0.01824   0.05838
N          N       0.41143   0.67525   0.86138  -0.28492
N          N       0.53934   0.69598   0.99282   0.06231
N          N       0.64235   0.24368   0.57885  -0.62348
O          O       0.52022   0.00885   0.90282  -0.55937
O          O       0.30144   0.87760   0.82370  -0.56422
O          O       0.42193   0.56634   0.19595  -0.56641
O          O       0.20394   0.42774   0.11068  -0.55548
O          O       0.48934   0.00939   0.40286  -0.55916
O          O       0.57712   0.87807   0.32349  -0.56322
O          O       0.14325   0.56583   0.69560  -0.56700
O          O       0.22314   0.42690   0.61153  -0.55536

