data_crystal

_audit_creation_method 'AiiDA-DDEC plugin'

_cell_length_a         9.07446
_cell_length_b        10.60013
_cell_length_c        18.05549

_cell_angle_alpha     90.04653
_cell_angle_beta     89.76650
_cell_angle_gamma     88.18374

_symmetry_space_group_name_Hall 'P 1'
_symmetry_space_group_name_H-M  'P 1'

loop_
_symmetry_equiv_pos_as_xyz
 'x,y,z'

loop_
_atom_site_label
_atom_site_type_symbol
_atom_site_fract_x
_atom_site_fract_y
_atom_site_fract_z
_atom_site_charge
Cd         Cd      0.09395   0.65614   0.53969   0.96425
Cd         Cd      0.40694   0.84413   0.03989   0.96567
Cd         Cd      0.90605   0.34386   0.46031   0.96422
Cd         Cd      0.59306   0.15587   0.96010   0.96563
H          H       0.28100   0.79401   0.78592   0.12755
H          H       0.65674   0.03433   0.79899   0.13855
H          H       0.48514   0.92438   0.58685   0.11649
H          H       0.76796   0.16226   0.57495   0.10150
H          H       0.58958   0.09951   0.55649   0.09966
H          H       0.77021   0.74202   0.43528   0.12763
H          H       0.94275   0.91652   0.62383   0.14195
H          H       0.21756   0.70477   0.28531   0.12747
H          H       0.84141   0.46542   0.29967   0.13713
H          H       0.01446   0.57466   0.08679   0.11714
H          H       0.73387   0.33937   0.07285   0.10247
H          H       0.91298   0.40217   0.05699   0.09865
H          H       0.73151   0.75856   0.93438   0.12764
H          H       0.55907   0.58450   0.12373   0.14105
H          H       0.71900   0.20599   0.21408   0.12756
H          H       0.34326   0.96567   0.20100   0.13863
H          H       0.51485   0.07562   0.41314   0.11636
H          H       0.23204   0.83774   0.42504   0.10157
H          H       0.41042   0.90048   0.44350   0.09958
H          H       0.22979   0.25798   0.56472   0.12740
H          H       0.05724   0.08348   0.37617   0.14206
H          H       0.78243   0.29523   0.71468   0.12757
H          H       0.15859   0.53458   0.70033   0.13719
H          H       0.98554   0.42534   0.91321   0.11703
H          H       0.26613   0.66063   0.92715   0.10240
H          H       0.08702   0.59783   0.94300   0.09864
H          H       0.26849   0.24144   0.06562   0.12759
H          H       0.44093   0.41550   0.87627   0.14107
C          C       0.37452   0.85294   0.68201   0.00078
C          C       0.36604   0.84807   0.75928  -0.12422
C          C       0.47010   0.91156   0.80173  -0.03292
C          C       0.57810   0.98215   0.76696  -0.18326
C          C       0.58118   0.99028   0.68983   0.23817
C          C       0.48337   0.92317   0.64689  -0.22867
C          C       0.26815   0.78412   0.63477   0.55067
C          C       0.46641   0.90591   0.88430   0.57561
C          C       0.69623   0.08263   0.58387   0.07400
C          C       0.78684   0.80964   0.47921   0.14225
C          C       0.87803   0.89662   0.57511   0.09488
C          C       0.12446   0.64602   0.18175  -0.00376
C          C       0.13285   0.65038   0.25898  -0.12151
C          C       0.02890   0.58660   0.30166  -0.03480
C          C       0.92045   0.51662   0.26706  -0.18102
C          C       0.91701   0.50906   0.18986   0.23879
C          C       0.01572   0.57585   0.14684  -0.22830
C          C       0.23105   0.71554   0.13446   0.55230
C          C       0.03266   0.59271   0.38431   0.57378
C          C       0.80482   0.41884   0.08324   0.06636
C          C       0.71538   0.69159   0.97870   0.14097
C          C       0.62382   0.60483   0.07485   0.08568
C          C       0.62548   0.14706   0.31799   0.00088
C          C       0.63395   0.15193   0.24072  -0.12431
C          C       0.52990   0.08844   0.19826  -0.03274
C          C       0.42190   0.01785   0.23304  -0.18329
C          C       0.41881   0.00972   0.31017   0.23818
C          C       0.51663   0.07683   0.35311  -0.22872
C          C       0.73185   0.21588   0.36523   0.55091
C          C       0.53359   0.09409   0.11570   0.57543
C          C       0.30377   0.91737   0.41612   0.07387
C          C       0.21316   0.19036   0.52079   0.14235
C          C       0.12197   0.10338   0.42488   0.09517
C          C       0.87554   0.35398   0.81825  -0.00368
C          C       0.86714   0.34962   0.74102  -0.12149
C          C       0.97110   0.41340   0.69833  -0.03487
C          C       0.07954   0.48338   0.73293  -0.18096
C          C       0.08299   0.49094   0.81014   0.23876
C          C       0.98428   0.42415   0.85315  -0.22840
C          C       0.76895   0.28446   0.86554   0.55222
C          C       0.96734   0.40729   0.61569   0.57380
C          C       0.19517   0.58116   0.91675   0.06631
C          C       0.28462   0.30841   0.02130   0.14088
C          C       0.37618   0.39517   0.92514   0.08574
N          N       0.76234   0.96710   0.55039   0.10776
N          N       0.70203   0.91262   0.48941  -0.23403
N          N       0.89632   0.79577   0.53097  -0.33650
N          N       0.74017   0.53479   0.05004   0.13714
N          N       0.80083   0.58908   0.98895  -0.24064
N          N       0.60537   0.70534   0.03064  -0.33663
N          N       0.23766   0.03290   0.44961   0.10772
N          N       0.29797   0.08738   0.51059  -0.23424
N          N       0.10367   0.20423   0.46903  -0.33664
N          N       0.25983   0.46521   0.94996   0.13722
N          N       0.19917   0.41092   0.01105  -0.24082
N          N       0.39463   0.29466   0.96936  -0.33650
O          O       0.30359   0.76246   0.56669  -0.56437
O          O       0.14701   0.74946   0.66274  -0.56144
O          O       0.36201   0.84771   0.91535  -0.52844
O          O       0.56992   0.95580   0.92212  -0.60823
O          O       0.68761   0.06879   0.66153  -0.20122
O          O       0.19945   0.73148   0.06566  -0.56710
O          O       0.34859   0.75643   0.16281  -0.55978
O          O       0.13804   0.64991   0.41489  -0.52770
O          O       0.92793   0.54433   0.42238  -0.60620
O          O       0.80984   0.43185   0.16107  -0.20313
O          O       0.69641   0.23754   0.43331  -0.56468
O          O       0.85299   0.25054   0.33726  -0.56144
O          O       0.63799   0.15229   0.08464  -0.52843
O          O       0.43008   0.04420   0.07788  -0.60808
O          O       0.31239   0.93121   0.33847  -0.20102
O          O       0.80055   0.26852   0.93434  -0.56732
O          O       0.65140   0.24357   0.83718  -0.55948
O          O       0.86195   0.35009   0.58511  -0.52755
O          O       0.07207   0.45567   0.57762  -0.60617
O          O       0.19016   0.56815   0.83893  -0.20314

