data_crystal

_audit_creation_method 'AiiDA-DDEC plugin'

_cell_length_a        17.69001
_cell_length_b        18.95890
_cell_length_c        18.96395

_cell_angle_alpha     90.00580
_cell_angle_beta     90.06491
_cell_angle_gamma     90.01791

_symmetry_space_group_name_Hall 'P 1'
_symmetry_space_group_name_H-M  'P 1'

loop_
_symmetry_equiv_pos_as_xyz
 'x,y,z'

loop_
_atom_site_label
_atom_site_type_symbol
_atom_site_fract_x
_atom_site_fract_y
_atom_site_fract_z
_atom_site_charge
Cd         Cd      0.00497   0.56833   0.43301   0.93307
Cd         Cd      0.00527   0.93165   0.06678   0.93260
Cd         Cd      0.50473   0.56719   0.06824   0.93319
Cd         Cd      0.50527   0.93313   0.43166   0.93297
Cd         Cd      0.99545   0.43174   0.56717   0.93301
Cd         Cd      0.99473   0.06849   0.93322   0.93284
Cd         Cd      0.49533   0.43284   0.93174   0.93339
Cd         Cd      0.49480   0.06675   0.56841   0.93283
H          H       0.80199   0.69831   0.53149   0.13390
H          H       0.82369   0.72519   0.30721   0.12430
H          H       0.70792   0.80356   0.30658   0.13266
H          H       0.68847   0.77900   0.53154   0.13483
H          H       0.80204   0.80166   0.96858   0.13420
H          H       0.82397   0.77484   0.19293   0.12420
H          H       0.70812   0.69666   0.19337   0.12865
H          H       0.68848   0.72116   0.96838   0.13455
H          H       0.30160   0.46828   0.19857   0.13362
H          H       0.32353   0.69268   0.22519   0.12435
H          H       0.20792   0.69331   0.30357   0.12885
H          H       0.18825   0.46831   0.27922   0.13417
H          H       0.30211   0.03149   0.30179   0.13401
H          H       0.32390   0.80709   0.27490   0.12414
H          H       0.20811   0.80655   0.19651   0.13202
H          H       0.18857   0.03160   0.22107   0.13461
H          H       0.19839   0.30160   0.46836   0.13372
H          H       0.17668   0.27491   0.69270   0.12380
H          H       0.29220   0.19622   0.69329   0.12956
H          H       0.31161   0.22064   0.46835   0.13422
H          H       0.19799   0.19843   0.03143   0.13421
H          H       0.17599   0.22531   0.80710   0.12715
H          H       0.29197   0.30338   0.80666   0.12823
H          H       0.31162   0.27884   0.03159   0.13450
H          H       0.69842   0.53170   0.80139   0.13363
H          H       0.67650   0.30728   0.77477   0.12371
H          H       0.79210   0.30668   0.69635   0.12896
H          H       0.81177   0.53167   0.72072   0.13429
H          H       0.69785   0.96855   0.69826   0.13394
H          H       0.67606   0.19294   0.72521   0.12381
H          H       0.79199   0.19344   0.80345   0.13192
H          H       0.81148   0.96843   0.77884   0.13433
C          C       0.81887   0.70805   0.41936   0.00973
C          C       0.88668   0.66210   0.42004   0.52865
C          C       0.78101   0.72213   0.48310  -0.08616
C          C       0.79311   0.73736   0.35544  -0.09208
C          C       0.72943   0.78029   0.35510  -0.09087
C          C       0.69234   0.79524   0.41908   0.00570
C          C       0.62532   0.84224   0.41989   0.52847
C          C       0.71840   0.76635   0.48307  -0.08590
C          C       0.81909   0.79178   0.08063   0.01044
C          C       0.88688   0.83771   0.07987   0.52683
C          C       0.78105   0.77785   0.01692  -0.08684
C          C       0.79337   0.76270   0.14462  -0.09099
C          C       0.72963   0.71983   0.14488  -0.08823
C          C       0.69245   0.70478   0.08088   0.00596
C          C       0.62539   0.65776   0.08011   0.52868
C          C       0.71842   0.73366   0.01691  -0.08529
C          C       0.31857   0.58055   0.20803   0.00824
C          C       0.38629   0.57992   0.16199   0.52969
C          C       0.28071   0.51675   0.22224  -0.08496
C          C       0.29291   0.64444   0.23735  -0.09134
C          C       0.22935   0.64476   0.28037  -0.08690
C          C       0.19223   0.58078   0.29540   0.00450
C          C       0.12522   0.58005   0.34236   0.52989
C          C       0.21822   0.51679   0.26655  -0.08551
C          C       0.31911   0.91942   0.29185   0.01061
C          C       0.38693   0.92011   0.33779   0.52655
C          C       0.28110   0.98313   0.27793  -0.08612
C          C       0.29332   0.85538   0.26274  -0.09058
C          C       0.22959   0.85505   0.21983  -0.09184
C          C       0.19247   0.91906   0.20483   0.00615
C          C       0.12542   0.91988   0.15778   0.52836
C          C       0.21846   0.98309   0.23372  -0.08515
C          C       0.18151   0.29191   0.58057   0.00808
C          C       0.11365   0.33771   0.57988   0.53058
C          C       0.21933   0.27785   0.51680  -0.08501
C          C       0.20725   0.26267   0.64449  -0.08983
C          C       0.27082   0.21964   0.64482  -0.08871
C          C       0.30782   0.20463   0.58083   0.00462
C          C       0.37478   0.15762   0.58007   0.52999
C          C       0.28182   0.23351   0.51683  -0.08533
C          C       0.18086   0.20831   0.91934   0.01032
C          C       0.11310   0.16236   0.92014   0.52796
C          C       0.21892   0.22223   0.98307  -0.08700
C          C       0.20661   0.23744   0.85540  -0.09386
C          C       0.27040   0.28025   0.85516  -0.08736
C          C       0.30762   0.29524   0.91914   0.00520
C          C       0.37468   0.34227   0.91991   0.52966
C          C       0.28160   0.26637   0.98309  -0.08511
C          C       0.68144   0.41942   0.79193   0.00860
C          C       0.61386   0.42002   0.83816   0.52904
C          C       0.71928   0.48323   0.77769  -0.08446
C          C       0.70709   0.35553   0.76258  -0.09091
C          C       0.77065   0.35522   0.71956  -0.08672
C          C       0.80777   0.41921   0.70455   0.00513
C          C       0.87481   0.41995   0.65761   0.52987
C          C       0.78177   0.48320   0.73338  -0.08617
C          C       0.68089   0.08063   0.70822   0.01078
C          C       0.61311   0.07989   0.66226   0.52679
C          C       0.71888   0.01690   0.72210  -0.08663
C          C       0.70666   0.14465   0.73734  -0.09066
C          C       0.77043   0.14495   0.78019  -0.09114
C          C       0.80755   0.08094   0.79517   0.00570
C          C       0.87460   0.08012   0.84221   0.52808
C          C       0.78154   0.01694   0.76628  -0.08451
Cl         Cl      0.07918   0.54050   0.54659  -0.41401
Cl         Cl      0.07898   0.96014   0.95332  -0.41398
Cl         Cl      0.57891   0.45370   0.04047  -0.41379
Cl         Cl      0.57900   0.04666   0.46008  -0.41388
Cl         Cl      0.92126   0.45968   0.45373  -0.41363
Cl         Cl      0.92103   0.04002   0.04663  -0.41415
Cl         Cl      0.42110   0.54635   0.95952  -0.41398
Cl         Cl      0.42103   0.95323   0.53996  -0.41420
O          O       0.92290   0.65344   0.47810  -0.44116
O          O       0.90867   0.63128   0.36420  -0.43983
O          O       0.61006   0.88209   0.36777  -0.44089
O          O       0.58290   0.84301   0.47471  -0.44094
O          O       0.92300   0.84652   0.02184  -0.44082
O          O       0.90902   0.86839   0.13576  -0.43824
O          O       0.61016   0.61796   0.13225  -0.44035
O          O       0.58281   0.65703   0.02531  -0.44111
O          O       0.42226   0.52180   0.15341  -0.44107
O          O       0.40861   0.63571   0.13119  -0.44054
O          O       0.11002   0.63226   0.38211  -0.44131
O          O       0.08267   0.52527   0.34308  -0.44123
O          O       0.42346   0.97801   0.34647  -0.44069
O          O       0.40875   0.86420   0.36861  -0.43820
O          O       0.11016   0.86777   0.11789  -0.44087
O          O       0.08293   0.97469   0.15705  -0.44076
O          O       0.07815   0.34679   0.52158  -0.44207
O          O       0.09098   0.36802   0.63580  -0.44159
O          O       0.39001   0.11782   0.63224  -0.44188
O          O       0.41725   0.15689   0.52530  -0.44099
O          O       0.07728   0.15348   0.97830  -0.44115
O          O       0.09080   0.13171   0.86428  -0.43967
O          O       0.38991   0.38204   0.86775  -0.44093
O          O       0.41727   0.34302   0.97470  -0.44124
O          O       0.57782   0.47813   0.84660  -0.44083
O          O       0.59173   0.36433   0.86928  -0.44027
O          O       0.88999   0.36776   0.61786  -0.44127
O          O       0.91738   0.47472   0.65695  -0.44144
O          O       0.57682   0.02188   0.65348  -0.44109
O          O       0.59108   0.13578   0.63153  -0.43830
O          O       0.88984   0.13226   0.88210  -0.44051
O          O       0.91710   0.02532   0.84297  -0.44071

