data_crystal

_audit_creation_method 'AiiDA-DDEC plugin'

_cell_length_a        11.85329
_cell_length_b        12.07972
_cell_length_c        16.55775

_cell_angle_alpha     90.04510
_cell_angle_beta     90.04984
_cell_angle_gamma     112.32484

_symmetry_space_group_name_Hall 'P 1'
_symmetry_space_group_name_H-M  'P 1'

loop_
_symmetry_equiv_pos_as_xyz
 'x,y,z'

loop_
_atom_site_label
_atom_site_type_symbol
_atom_site_fract_x
_atom_site_fract_y
_atom_site_fract_z
_atom_site_charge
Eu         Eu      0.80658   0.42409   0.97216   1.73327
Eu         Eu      0.19374   0.07751   0.47154   1.73206
Eu         Eu      0.19440   0.57821   0.02760   1.73305
Eu         Eu      0.80650   0.92295   0.52853   1.73214
H          H       0.23593   0.79090   0.86185   0.15093
H          H       0.26994   0.91776   0.72566   0.13927
H          H       0.69464   0.06986   0.74816   0.14735
H          H       0.56853   0.00904   0.61178   0.15680
H          H       0.76447   0.70854   0.36192   0.15199
H          H       0.73180   0.58086   0.22562   0.13896
H          H       0.30668   0.43197   0.24772   0.14673
H          H       0.43225   0.49205   0.11135   0.15703
H          H       0.76391   0.20769   0.13744   0.15195
H          H       0.73059   0.08095   0.27379   0.13915
H          H       0.30590   0.93028   0.25189   0.14756
H          H       0.43242   0.99186   0.38808   0.15696
H          H       0.23538   0.28961   0.64011   0.15113
H          H       0.26823   0.41853   0.77568   0.13891
H          H       0.69283   0.56636   0.75165   0.14791
H          H       0.56883   0.50865   0.88886   0.15689
C          C       0.04191   0.75968   0.85058  -0.05703
C          C       0.16531   0.80691   0.82740  -0.09530
C          C       0.18310   0.87296   0.75598  -0.09072
C          C       0.07309   0.87430   0.72480  -0.05875
C          C       0.98578   0.67831   0.91890   0.60513
C          C       0.05358   0.93126   0.64951   0.61282
C          C       0.60427   0.19548   0.76928  -0.06829
C          C       0.62939   0.10681   0.72716  -0.10223
C          C       0.56293   0.07442   0.65505  -0.07637
C          C       0.48676   0.13777   0.64323  -0.06745
C          C       0.66362   0.26170   0.84257   0.53973
C          C       0.40521   0.12959   0.57421   0.54651
C          C       0.95872   0.74076   0.35115  -0.05815
C          C       0.83538   0.69271   0.32775  -0.09551
C          C       0.81824   0.62662   0.25629  -0.09078
C          C       0.92862   0.62631   0.22525  -0.05946
C          C       0.01469   0.82298   0.41918   0.60665
C          C       0.94760   0.56947   0.14975   0.61243
C          C       0.39615   0.30548   0.26874  -0.07041
C          C       0.37146   0.39449   0.22669  -0.10195
C          C       0.43796   0.42681   0.15467  -0.07658
C          C       0.51396   0.36325   0.14300  -0.06738
C          C       0.33673   0.23917   0.34195   0.53993
C          C       0.59508   0.37063   0.07404   0.54658
C          C       0.95851   0.24181   0.14956  -0.05506
C          C       0.83486   0.19286   0.17225  -0.09373
C          C       0.81732   0.12661   0.24355  -0.09044
C          C       0.92758   0.12647   0.27506  -0.05724
C          C       0.01449   0.32352   0.08125   0.60614
C          C       0.94673   0.06905   0.35023   0.61031
C          C       0.39629   0.80463   0.23096  -0.06932
C          C       0.37117   0.89339   0.27296  -0.10380
C          C       0.43772   0.92609   0.34503  -0.07571
C          C       0.51362   0.86250   0.35702  -0.06880
C          C       0.33679   0.73857   0.15765   0.53996
C          C       0.59510   0.87052   0.42597   0.54748
C          C       0.04158   0.25997   0.64944  -0.05830
C          C       0.16460   0.30667   0.67362  -0.09676
C          C       0.18183   0.37370   0.74470  -0.09001
C          C       0.07180   0.37620   0.77480  -0.05837
C          C       0.98583   0.17771   0.58127   0.60602
C          C       0.05208   0.43356   0.85000   0.61463
C          C       0.60482   0.69428   0.73094  -0.06635
C          C       0.62906   0.60495   0.77296  -0.10379
C          C       0.56339   0.57378   0.84535  -0.07590
C          C       0.48838   0.63835   0.85725  -0.06480
C          C       0.66389   0.76068   0.65768   0.53931
C          C       0.40726   0.63167   0.92613   0.54536
S          S       0.94896   0.79528   0.78374   0.23243
S          S       0.49591   0.23620   0.72092   0.21665
S          S       0.05242   0.70610   0.28442   0.23184
S          S       0.50443   0.26467   0.22050   0.21584
S          S       0.05186   0.20740   0.21672   0.23206
S          S       0.50431   0.76373   0.27956   0.21614
S          S       0.94831   0.29746   0.71507   0.23131
S          S       0.49794   0.73667   0.77962   0.21707
O          O       0.86985   0.62993   0.92043  -0.57483
O          O       0.05704   0.65745   0.96874  -0.63270
O          O       0.94793   0.93332   0.63958  -0.61951
O          O       0.14392   0.97292   0.60240  -0.58757
O          O       0.71419   0.21602   0.89275  -0.46750
O          O       0.66306   0.36670   0.85299  -0.53862
O          O       0.35500   0.20620   0.56806  -0.55491
O          O       0.38296   0.04431   0.52374  -0.48522
O          O       0.13061   0.87171   0.42064  -0.57589
O          O       0.94328   0.84422   0.46868  -0.63246
O          O       0.05289   0.56707   0.13931  -0.61736
O          O       0.85660   0.52790   0.10287  -0.58829
O          O       0.28606   0.28490   0.39209  -0.46930
O          O       0.33716   0.13412   0.35257  -0.53915
O          O       0.64504   0.29385   0.06789  -0.55487
O          O       0.61718   0.45578   0.02359  -0.48734
O          O       0.13036   0.37197   0.07952  -0.57657
O          O       0.94286   0.34414   0.03158  -0.63185
O          O       0.05218   0.06668   0.36031  -0.61736
O          O       0.85625   0.02747   0.39730  -0.58250
O          O       0.28600   0.78424   0.10758  -0.47111
O          O       0.33701   0.63344   0.14704  -0.53814
O          O       0.64524   0.79384   0.43213  -0.55554
O          O       0.61734   0.95580   0.47643  -0.48556
O          O       0.86985   0.12873   0.57968  -0.57342
O          O       0.05705   0.15679   0.53150  -0.63292
O          O       0.94573   0.43336   0.86038  -0.62166
O          O       0.14317   0.47758   0.89662  -0.59622
O          O       0.71445   0.71516   0.60738  -0.47018
O          O       0.66305   0.86563   0.64737  -0.54019
O          O       0.35968   0.71028   0.93245  -0.55127
O          O       0.38289   0.54542   0.97601  -0.48762

