data_crystal

_audit_creation_method 'AiiDA-DDEC plugin'

_cell_length_a        10.57067
_cell_length_b        14.84843
_cell_length_c        14.84843

_cell_angle_alpha     90.00000
_cell_angle_beta     90.00000
_cell_angle_gamma     90.00000

_symmetry_space_group_name_Hall 'P 1'
_symmetry_space_group_name_H-M  'P 1'

loop_
_symmetry_equiv_pos_as_xyz
 'x,y,z'

loop_
_atom_site_label
_atom_site_type_symbol
_atom_site_fract_x
_atom_site_fract_y
_atom_site_fract_z
_atom_site_charge
Sr         Sr      0.59136   0.50000   0.00000   1.48876
Sr         Sr      0.40864   0.00000   0.50000   1.48877
Sr         Sr      0.90865   0.00000   0.50000   1.48876
Sr         Sr      0.09135   0.50000   0.00000   1.48874
Li         Li      0.35558   0.44558   0.15279   0.85746
Li         Li      0.35558   0.55442   0.84722   0.85740
Li         Li      0.64442   0.15279   0.55442   0.85751
Li         Li      0.64442   0.84722   0.44558   0.85744
Li         Li      0.14442   0.05442   0.65279   0.85753
Li         Li      0.14442   0.94558   0.34721   0.85745
Li         Li      0.85558   0.34721   0.05442   0.85745
Li         Li      0.85558   0.65279   0.94558   0.85751
H          H       0.44317   0.18313   0.36200   0.26995
H          H       0.77689   0.20158   0.20302   0.13855
H          H       0.44317   0.81687   0.63800   0.26999
H          H       0.77689   0.79842   0.79699   0.13860
H          H       0.55683   0.36200   0.81687   0.26999
H          H       0.22311   0.20302   0.79842   0.13856
H          H       0.55683   0.63800   0.18313   0.26998
H          H       0.22311   0.79699   0.20158   0.13857
H          H       0.05683   0.31687   0.86200   0.27002
H          H       0.72311   0.29842   0.70302   0.13852
H          H       0.05683   0.68313   0.13800   0.26996
H          H       0.72311   0.70159   0.29699   0.13853
H          H       0.94317   0.13800   0.31687   0.26997
H          H       0.27689   0.29699   0.29842   0.13859
H          H       0.94317   0.86200   0.68313   0.27002
H          H       0.27689   0.70302   0.70159   0.13849
C          C       0.59196   0.33505   0.12681   0.64201
C          C       0.58775   0.26945   0.20126   0.00859
C          C       0.68259   0.20935   0.23022  -0.21074
C          C       0.63194   0.16693   0.30554   0.01034
C          C       0.68768   0.10549   0.37292   0.59418
C          C       0.59196   0.66496   0.87319   0.64194
C          C       0.58775   0.73056   0.79874   0.00873
C          C       0.68259   0.79065   0.76978  -0.21073
C          C       0.63194   0.83307   0.69447   0.01050
C          C       0.68768   0.89452   0.62708   0.59412
C          C       0.40804   0.12681   0.66496   0.64198
C          C       0.41225   0.20126   0.73056   0.00872
C          C       0.31741   0.23022   0.79065  -0.21083
C          C       0.36806   0.30554   0.83307   0.01045
C          C       0.31232   0.37292   0.89452   0.59410
C          C       0.40804   0.87319   0.33505   0.64175
C          C       0.41225   0.79874   0.26945   0.00878
C          C       0.31741   0.76978   0.20935  -0.21075
C          C       0.36806   0.69447   0.16693   0.01042
C          C       0.31232   0.62708   0.10549   0.59419
C          C       0.90804   0.16495   0.62682   0.64199
C          C       0.91225   0.23056   0.70126   0.00874
C          C       0.81742   0.29065   0.73022  -0.21085
C          C       0.86806   0.33307   0.80554   0.01041
C          C       0.81231   0.39452   0.87293   0.59417
C          C       0.90804   0.83505   0.37319   0.64176
C          C       0.91225   0.76945   0.29874   0.00877
C          C       0.81742   0.70935   0.26978  -0.21072
C          C       0.86806   0.66693   0.19447   0.01031
C          C       0.81231   0.60549   0.12708   0.59425
C          C       0.09196   0.37319   0.16495   0.64192
C          C       0.08775   0.29874   0.23056   0.00870
C          C       0.18259   0.26978   0.29065  -0.21079
C          C       0.13194   0.19446   0.33307   0.01039
C          C       0.18769   0.12708   0.39452   0.59433
C          C       0.09196   0.62682   0.83505   0.64192
C          C       0.08775   0.70126   0.76945   0.00866
C          C       0.18259   0.73022   0.70935  -0.21076
C          C       0.13194   0.80554   0.66693   0.01026
C          C       0.18769   0.87293   0.60549   0.59421
N          N       0.51252   0.20261   0.31669  -0.07591
N          N       0.48382   0.26448   0.25474  -0.18338
N          N       0.51252   0.79739   0.68332  -0.07620
N          N       0.48382   0.73552   0.74526  -0.18340
N          N       0.48748   0.31669   0.79739  -0.07588
N          N       0.51618   0.25474   0.73552  -0.18353
N          N       0.48748   0.68332   0.20261  -0.07629
N          N       0.51618   0.74526   0.26448  -0.18321
N          N       0.98748   0.29739   0.81669  -0.07591
N          N       0.01618   0.23552   0.75474  -0.18346
N          N       0.98748   0.70261   0.18332  -0.07618
N          N       0.01618   0.76448   0.24526  -0.18321
N          N       0.01252   0.18332   0.29739  -0.07604
N          N       0.98382   0.24526   0.23552  -0.18343
N          N       0.01252   0.81669   0.70261  -0.07594
N          N       0.98382   0.75474   0.76448  -0.18336
O          O       0.50061   0.39071   0.11777  -0.73735
O          O       0.68624   0.33668   0.07317  -0.71685
O          O       0.61800   0.08633   0.44145  -0.73645
O          O       0.80086   0.07776   0.36336  -0.60486
O          O       0.50061   0.60929   0.88223  -0.73734
O          O       0.68624   0.66333   0.92683  -0.71673
O          O       0.61800   0.91367   0.55856  -0.73646
O          O       0.80086   0.92224   0.63665  -0.60478
O          O       0.49939   0.11777   0.60929  -0.73744
O          O       0.31377   0.07317   0.66333  -0.71682
O          O       0.38200   0.44145   0.91367  -0.73634
O          O       0.19914   0.36336   0.92224  -0.60480
O          O       0.49939   0.88223   0.39071  -0.73726
O          O       0.31377   0.92683   0.33668  -0.71662
O          O       0.38200   0.55856   0.08633  -0.73653
O          O       0.19914   0.63665   0.07776  -0.60483
O          O      -0.00061   0.10929   0.61777  -0.73737
O          O       0.81376   0.16333   0.57317  -0.71693
O          O       0.88200   0.41367   0.94145  -0.73636
O          O       0.69915   0.42224   0.86336  -0.60485
O          O      -0.00061   0.89071   0.38223  -0.73710
O          O       0.81376   0.83668   0.42683  -0.71678
O          O       0.88200   0.58633   0.05855  -0.73659
O          O       0.69915   0.57777   0.13664  -0.60486
O          O       0.00061   0.38223   0.10929  -0.73727
O          O       0.18624   0.42683   0.16333  -0.71679
O          O       0.11800   0.05855   0.41367  -0.73655
O          O       0.30085   0.13664   0.42224  -0.60482
O          O       0.00061   0.61777   0.89071  -0.73720
O          O       0.18624   0.57317   0.83668  -0.71692
O          O       0.11800   0.94145   0.58633  -0.73645
O          O       0.30085   0.86336   0.57777  -0.60485

