data_crystal

_audit_creation_method 'AiiDA-DDEC plugin'

_cell_length_a         6.82982
_cell_length_b        20.28668
_cell_length_c        19.78024

_cell_angle_alpha     114.36137
_cell_angle_beta     90.09287
_cell_angle_gamma     89.83231

_symmetry_space_group_name_Hall 'P 1'
_symmetry_space_group_name_H-M  'P 1'

loop_
_symmetry_equiv_pos_as_xyz
 'x,y,z'

loop_
_atom_site_label
_atom_site_type_symbol
_atom_site_fract_x
_atom_site_fract_y
_atom_site_fract_z
_atom_site_charge
Ni         Ni      0.50989   0.13182   0.41932   0.78869
Ni         Ni      0.50982   0.36804   0.57878   0.78943
Ni         Ni      0.49012   0.86819   0.58070   0.78836
Ni         Ni      0.49019   0.63197   0.42123   0.78952
Ni         Ni      0.39708   0.25149  -0.00077   0.48731
Ni         Ni      0.60277   0.74853   0.00082   0.48806
H          H       0.50422   0.41225   0.43612   0.13212
H          H       0.44341   0.40938   0.21874   0.12518
H          H       0.46809   0.20835   0.24348   0.12943
H          H       0.19768   0.12990   0.52470   0.11881
H          H       0.82221   0.13081   0.52476   0.12243
H          H       0.82169   0.13057   0.31539   0.12879
H          H       0.19862   0.13004   0.31540   0.12840
H          H       0.08698   0.34340   0.09588   0.13570
H          H       0.71764   0.34443   0.09485   0.13312
H          H       0.50467   0.08793   0.56339   0.13205
H          H       0.44396   0.09233   0.78135   0.12484
H          H       0.46960   0.29255   0.75530   0.12964
H          H       0.19665   0.37009   0.47415   0.11810
H          H       0.82112   0.36882   0.47395   0.12201
H          H       0.82257   0.36903   0.68331   0.12923
H          H       0.19947   0.36994   0.68345   0.12924
H          H       0.08763   0.15261   0.90438   0.13766
H          H       0.71805   0.15175   0.90541   0.13423
H          H       0.49571   0.58781   0.56392   0.13202
H          H       0.55688   0.59058   0.78130   0.12544
H          H       0.53209   0.79163   0.75660   0.12922
H          H       0.80230   0.87009   0.47533   0.11891
H          H       0.17776   0.86916   0.47526   0.12222
H          H       0.17828   0.86942   0.68465   0.12917
H          H       0.80136   0.86996   0.68463   0.12861
H          H       0.91370   0.65681   0.90401   0.13609
H          H       0.28305   0.65573   0.90513   0.13785
H          H       0.49517   0.91217   0.43670   0.13224
H          H       0.55629   0.90767   0.21871   0.12493
H          H       0.53058   0.70749   0.24492   0.12935
H          H       0.80334   0.62999   0.52583   0.11846
H          H       0.17884   0.63127   0.52603   0.12199
H          H       0.17740   0.63105   0.31666   0.12915
H          H       0.80052   0.63014   0.31653   0.12933
H          H       0.91312   0.84752   0.09571   0.13735
H          H       0.28274   0.84836   0.09462   0.13930
C          C       0.48275   0.49888   0.36397   0.53425
C          C       0.47586   0.41834   0.33046  -0.03219
C          C       0.49027   0.38124   0.37637  -0.11294
C          C       0.45547   0.37984   0.25360  -0.11006
C          C       0.50290   0.26598   0.39530   0.57525
C          C       0.48689   0.30537   0.34543  -0.05428
C          C       0.46870   0.26719   0.26835  -0.09594
C          C       0.45198   0.30403   0.22222  -0.04291
C          C       0.43568   0.26053   0.13986   0.53317
C          C       0.11242   0.13076   0.47858   0.05437
C          C       0.90787   0.13120   0.47863   0.05488
C          C       0.90777   0.13095   0.36188   0.04913
C          C       0.11250   0.13056   0.36183   0.04904
C          C       0.00539   0.30086   0.05254   0.04880
C          C       0.79900   0.30109   0.05210   0.05287
C          C       0.48293   0.00151   0.63625   0.53326
C          C       0.47666   0.08216   0.66929  -0.03068
C          C       0.49094   0.11897   0.62313  -0.11120
C          C       0.45640   0.12129   0.74600  -0.11002
C          C       0.50339   0.23335   0.60300   0.57455
C          C       0.48784   0.19485   0.65363  -0.05504
C          C       0.47008   0.23369   0.73063  -0.09553
C          C       0.45316   0.19711   0.77689  -0.04426
C          C       0.43602   0.24014   0.85906   0.53464
C          C       0.11177   0.36915   0.52023   0.05451
C          C       0.90727   0.36849   0.52010   0.05492
C          C       0.90820   0.36871   0.63683   0.05001
C          C       0.11297   0.36933   0.63697   0.04871
C          C       0.00569   0.19512   0.94772   0.04587
C          C       0.79936   0.19496   0.94816   0.05254
C          C       0.51727   0.50114   0.63604   0.53447
C          C       0.52430   0.58168   0.66957  -0.03203
C          C       0.50985   0.61879   0.62367  -0.11289
C          C       0.54472   0.62015   0.74646  -0.11014
C          C       0.49712   0.73403   0.60474   0.57537
C          C       0.51322   0.69465   0.65461  -0.05460
C          C       0.53143   0.73281   0.73170  -0.09550
C          C       0.54826   0.69597   0.77783  -0.04353
C          C       0.56461   0.73955   0.86020   0.53390
C          C       0.88757   0.86924   0.52145   0.05395
C          C       0.09212   0.86880   0.52141   0.05541
C          C       0.09223   0.86906   0.63816   0.04895
C          C       0.88750   0.86945   0.63821   0.04894
C          C       0.99523   0.69932   0.94742   0.04742
C          C       0.20162   0.69905   0.94788   0.05013
C          C       0.51711  -0.00146   0.36386   0.53398
C          C       0.52345   0.91789   0.33081  -0.03112
C          C       0.50914   0.88107   0.37697  -0.11103
C          C       0.54367   0.87875   0.25409  -0.10988
C          C       0.49662   0.76670   0.39711   0.57510
C          C       0.51223   0.80520   0.34646  -0.05563
C          C       0.52997   0.76634   0.26944  -0.09509
C          C       0.54696   0.80293   0.22317  -0.04385
C          C       0.56422   0.75999   0.14097   0.53380
C          C       0.88823   0.63091   0.47975   0.05419
C          C       0.09272   0.63157   0.47988   0.05514
C          C       0.09179   0.63135   0.36314   0.04962
C          C       0.88703   0.63073   0.36301   0.04883
C          C       0.99497   0.80501   0.05232   0.04755
C          C       0.20129   0.80518   0.05188   0.04729
N          N       0.21211   0.13184   0.42077  -0.16728
N          N       0.80826   0.13268   0.42088  -0.16313
N          N       0.21203   0.36825   0.57809  -0.16683
N          N       0.80821   0.36697   0.57781  -0.16436
N          N       0.78789   0.86818   0.57927  -0.16711
N          N       0.19173   0.86735   0.57917  -0.16358
N          N       0.78798   0.63181   0.42189  -0.16703
N          N       0.19178   0.63309   0.42216  -0.16430
N          N       0.10948   0.24768   0.00048  -0.08739
N          N       0.69569   0.24777   0.00049  -0.08530
N          N       0.89120   0.75249  -0.00049  -0.08802
N          N       0.30494   0.75236  -0.00048  -0.08639
O          O       0.48581   0.53341   0.43468  -0.53438
O          O       0.48552   0.53362   0.32257  -0.53761
O          O       0.50469   0.19658   0.36329  -0.56162
O          O       0.51407   0.30322   0.46443  -0.60013
O          O       0.40046   0.30069   0.10225  -0.52002
O          O       0.45639   0.19403   0.11119  -0.52230
O          O       0.48573   0.96660   0.56562  -0.53225
O          O       0.48548   0.96708   0.67802  -0.53834
O          O       0.50501   0.30274   0.63423  -0.56265
O          O       0.51410   0.19515   0.53409  -0.59728
O          O       0.39968   0.19999   0.89614  -0.51948
O          O       0.45693   0.30672   0.88880  -0.52175
O          O       0.51417   0.46658   0.56532  -0.53466
O          O       0.51447   0.46642   0.67746  -0.53763
O          O       0.49525   0.80343   0.63673  -0.56147
O          O       0.48599   0.69676   0.53561  -0.60031
O          O       0.59991   0.69935   0.89777  -0.52120
O          O       0.54366   0.80602   0.88886  -0.52216
O          O       0.51425   0.03345   0.43448  -0.53252
O          O       0.51455   0.03298   0.32209  -0.53870
O          O       0.49494   0.69731   0.36594  -0.56267
O          O       0.48596   0.80499   0.46602  -0.59722
O          O       0.60082   0.80015   0.10393  -0.52005
O          O       0.54295   0.69343   0.11114  -0.52134

