data_crystal

_audit_creation_method 'AiiDA-DDEC plugin'

_cell_length_a        10.41549
_cell_length_b        13.86832
_cell_length_c        13.82182

_cell_angle_alpha     113.42871
_cell_angle_beta     103.47416
_cell_angle_gamma     103.20498

_symmetry_space_group_name_Hall 'P 1'
_symmetry_space_group_name_H-M  'P 1'

loop_
_symmetry_equiv_pos_as_xyz
 'x,y,z'

loop_
_atom_site_label
_atom_site_type_symbol
_atom_site_fract_x
_atom_site_fract_y
_atom_site_fract_z
_atom_site_charge
K          K       0.55324   0.39837   0.32638   0.91429
K          K       0.94664   0.67227   0.60328   0.91421
K          K       0.44676   0.60163   0.67362   0.91430
K          K       0.05336   0.32773   0.39672   0.91419
H          H       0.35939   0.20311   0.79110   0.12237
H          H       0.29944   0.27030   0.64780   0.10777
H          H       0.61814   0.17647   0.52411   0.12871
H          H       0.75414   0.10058   0.74852   0.12466
H          H       0.63191   0.98677   0.62234   0.12628
H          H       0.80016   0.93264   0.54320   0.08039
H          H       0.94493   0.03740   0.66540   0.07082
H          H       0.01977   0.12526   0.54665   0.08263
H          H       0.87676   0.01420   0.42648   0.08688
H          H       0.84510   0.17434   0.62909   0.22440
H          H       0.67612   0.44997   0.55738   0.38282
H          H       0.14063   0.20780   0.79818   0.12236
H          H       0.20102   0.35025   0.73058   0.10752
H          H       0.88205   0.47434   0.82281   0.12890
H          H       0.74584   0.25203   0.89980   0.12498
H          H       0.86824   0.37752   0.01398   0.12605
H          H       0.70016   0.45684   0.06785   0.08092
H          H       0.55548   0.33528   0.96250   0.07030
H          H       0.47989   0.45362   0.87418   0.08294
H          H       0.62288   0.57317   0.98592   0.08651
H          H       0.65492   0.37110   0.82516   0.22484
H          H       0.82369   0.44178   0.54951   0.38260
H          H       0.64061   0.79689   0.20890   0.12245
H          H       0.70056   0.72970   0.35220   0.10781
H          H       0.38186   0.82353   0.47588   0.12860
H          H       0.24586   0.89942   0.25148   0.12522
H          H       0.36810   0.01323   0.37765   0.12629
H          H       0.19984   0.06736   0.45680   0.08046
H          H       0.05507   0.96260   0.33460   0.07080
H          H       0.98023   0.87474   0.45335   0.08263
H          H       0.12324   0.98580   0.57352   0.08693
H          H       0.15491   0.82566   0.37091   0.22435
H          H       0.32389   0.55003   0.44263   0.38283
H          H       0.85937   0.79220   0.20182   0.12225
H          H       0.79898   0.64975   0.26942   0.10740
H          H       0.11795   0.52566   0.17719   0.12898
H          H       0.25416   0.74797   0.10020   0.12499
H          H       0.13176   0.62248   0.98602   0.12609
H          H       0.29985   0.54316   0.93215   0.08092
H          H       0.44452   0.66472   0.03750   0.07037
H          H       0.52011   0.54638   0.12582   0.08295
H          H       0.37712   0.42683   0.01408   0.08644
H          H       0.34508   0.62890   0.17484   0.22487
H          H       0.17632   0.55821   0.45049   0.38255
C          C       0.59459   0.13931   0.65832   0.02395
C          C       0.52460   0.15134   0.74045   0.28854
C          C       0.41360   0.19717   0.73169  -0.18321
C          C       0.38267   0.23570   0.65503  -0.10490
C          C       0.45957   0.23087   0.58238  -0.07763
C          C       0.56407   0.18316   0.58381  -0.15485
C          C       0.69346   0.07716   0.65798  -0.09663
C          C       0.87207   0.02041   0.58339  -0.03587
C          C       0.95340   0.03580   0.50854  -0.17439
C          C       0.90527   0.34078   0.86082   0.02525
C          C       0.97521   0.25875   0.84918   0.28763
C          C       0.08642   0.26710   0.80365  -0.18292
C          C       0.11765   0.34335   0.76497  -0.10286
C          C       0.04048   0.41571   0.76912  -0.07815
C          C       0.93590   0.41465   0.81662  -0.15605
C          C       0.80656   0.34192   0.92311  -0.09732
C          C       0.62818   0.41686   0.97962  -0.03630
C          C       0.54649   0.49148   0.96406  -0.17477
C          C       0.40541   0.86069   0.34168   0.02391
C          C       0.47540   0.84866   0.25954   0.28857
C          C       0.58640   0.80283   0.26831  -0.18315
C          C       0.61733   0.76430   0.34497  -0.10476
C          C       0.54043   0.76913   0.41762  -0.07776
C          C       0.43593   0.81684   0.41619  -0.15486
C          C       0.30654   0.92284   0.34202  -0.09690
C          C       0.12794   0.97959   0.41661  -0.03593
C          C       0.04661   0.96420   0.49146  -0.17446
C          C       0.09473   0.65922   0.13918   0.02529
C          C       0.02479   0.74125   0.15082   0.28756
C          C       0.91358   0.73290   0.19635  -0.18287
C          C       0.88235   0.65665   0.23503  -0.10292
C          C       0.95952   0.58429   0.23088  -0.07815
C          C       0.06410   0.58535   0.18338  -0.15607
C          C       0.19344   0.65808   0.07689  -0.09737
C          C       0.37183   0.58314   0.02038  -0.03634
C          C       0.45352   0.50852   0.03594  -0.17469
S          S       0.41992   0.29315   0.49461   1.17847
S          S       0.07945   0.50340   0.70688   1.17644
S          S       0.58008   0.70685   0.50539   1.17874
S          S       0.92055   0.49659   0.29312   1.17646
N          N       0.78690   0.09162   0.59944  -0.27029
N          N       0.71327   0.40064   0.90830  -0.27189
N          N       0.21311   0.90838   0.40056  -0.27028
N          N       0.28673   0.59936   0.09170  -0.27198
O          O       0.56480   0.12777   0.81966  -0.40953
O          O       0.26666   0.27213   0.46473  -0.67531
O          O       0.50720   0.41631   0.57058  -0.68422
O          O       0.46346   0.24314   0.39764  -0.63606
O          O       0.93496   0.18009   0.87301  -0.40912
O          O       0.23277   0.53312   0.72811  -0.67536
O          O       0.99216   0.42845   0.58307  -0.68278
O          O       0.03557   0.59988   0.75776  -0.63534
O          O       0.43520   0.87223   0.18034  -0.40958
O          O       0.73335   0.72787   0.53527  -0.67526
O          O       0.49280   0.58369   0.42943  -0.68424
O          O       0.53655   0.75687   0.60236  -0.63632
O          O       0.06504   0.81991   0.12699  -0.40920
O          O       0.76724   0.46688   0.27189  -0.67553
O          O       0.00784   0.57154   0.41693  -0.68289
O          O       0.96443   0.40011   0.24224  -0.63507
O          O       0.74998   0.47124   0.52833  -0.87867
O          O       0.25003   0.52876   0.47167  -0.87864

