data_crystal

_audit_creation_method 'AiiDA-DDEC plugin'

_cell_length_a        13.74221
_cell_length_b        13.73640
_cell_length_c        16.39870

_cell_angle_alpha     66.79113
_cell_angle_beta     66.72952
_cell_angle_gamma     71.37479

_symmetry_space_group_name_Hall 'P 1'
_symmetry_space_group_name_H-M  'P 1'

loop_
_symmetry_equiv_pos_as_xyz
 'x,y,z'

loop_
_atom_site_label
_atom_site_type_symbol
_atom_site_fract_x
_atom_site_fract_y
_atom_site_fract_z
_atom_site_charge
Gd         Gd      0.56143   0.85101  -0.00116   2.02600
Gd         Gd      0.14988   0.43851   0.50076   2.02698
Gd         Gd      0.43857   0.14900   0.00116   2.02612
Gd         Gd      0.85013   0.56150   0.49924   2.02687
H          H       0.64326   0.91297   0.45573   0.14379
H          H       0.87092   0.91970   0.85933   0.14601
H          H       0.65766   0.75583   0.26837   0.14716
H          H       0.54253   0.10092   0.21203   0.14417
H          H       0.08796   0.35559   0.04456   0.14356
H          H       0.08115   0.12934   0.64051   0.14551
H          H       0.24311   0.34191   0.23303   0.14689
H          H       0.89862   0.45895   0.28696   0.14410
H          H       0.35675   0.08704   0.54427   0.14360
H          H       0.12909   0.08031   0.14067   0.14993
H          H       0.34235   0.24418   0.73163   0.14752
H          H       0.45748   0.89909   0.78797   0.14417
H          H       0.91204   0.64442   0.95544   0.14388
H          H       0.91886   0.87067   0.35949   0.14534
H          H       0.75690   0.65810   0.76697   0.14658
H          H       0.10139   0.54105   0.71304   0.14419
H          H       0.74221   0.25861   0.74946   0.14284
H          H       0.25779   0.74140   0.25054   0.14289
C          C       0.79459   0.08805   0.81261  -0.03143
C          C       0.63093   0.91685   0.39300  -0.09177
C          C       0.68538   0.07099   0.87980   0.65935
C          C       0.57463   0.93300   0.14791   0.64848
C          C       0.88158   0.00009   0.81203  -0.11123
C          C       0.63843   0.82882   0.28744  -0.06846
C          C       0.59623   0.92844   0.23165  -0.04176
C          C       0.65544   0.82332   0.36793  -0.02215
C          C       0.70404   0.71985   0.42648   0.55907
C          C       0.57376   0.02285   0.25506  -0.10467
C          C       0.59166   0.01496   0.33551   0.05993
C          C       0.91264   0.20568   0.68697  -0.03087
C          C       0.08362   0.36844   0.10721  -0.09208
C          C       0.92951   0.31480   0.61956   0.65776
C          C       0.06602   0.42680   0.35175   0.65277
C          C       0.00068   0.11878   0.68781  -0.10908
C          C       0.17063   0.36129   0.21326  -0.06649
C          C       0.07091   0.40433   0.26836  -0.04505
C          C       0.17667   0.34374   0.13285  -0.02399
C          C       0.28043   0.29444   0.07506   0.56539
C          C       0.97685   0.42702   0.24449  -0.10546
C          C       0.98530   0.40836   0.16425   0.06439
C          C       0.20542   0.91195   0.18739  -0.03135
C          C       0.36907   0.08316   0.60700  -0.09209
C          C       0.31463   0.92902   0.12020   0.65925
C          C       0.42538   0.06700   0.85209   0.64826
C          C       0.11843  -0.00008   0.18797  -0.11389
C          C       0.36158   0.17119   0.71256  -0.06885
C          C       0.40378   0.07157   0.76835  -0.04175
C          C       0.34457   0.17668   0.63207  -0.02165
C          C       0.29597   0.28015   0.57352   0.55898
C          C       0.42625   0.97716   0.74494  -0.10459
C          C       0.40835   0.98504   0.66449   0.05999
C          C       0.08736   0.79432   0.31303  -0.03110
C          C       0.91639   0.63156   0.89280  -0.09234
C          C       0.07050   0.68521   0.38044   0.65787
C          C       0.93399   0.57320   0.64825   0.65330
C          C      -0.00067   0.88122   0.31219  -0.10909
C          C       0.82937   0.63871   0.78674  -0.06660
C          C       0.92910   0.59567   0.73164  -0.04515
C          C       0.82334   0.65627   0.86715  -0.02370
C          C       0.71958   0.70557   0.92494   0.56520
C          C       0.02315   0.57299   0.75551  -0.10550
C          C       0.01471   0.59165   0.83575   0.06435
C          C       0.80993   0.19059   0.74973  -0.06836
C          C       0.98313   0.01740   0.75003   0.05858
C          C       0.19007   0.80941   0.25027  -0.06843
C          C       0.01688   0.98260   0.24997   0.05824
N          N       0.56731   0.11390   0.36138   0.52398
N          N       0.88683   0.43221   0.13811   0.52322
N          N       0.43270   0.88610   0.63862   0.52421
N          N       0.11318   0.56780   0.86189   0.52302
N          N       0.07564   0.92468   0.75013   0.52451
N          N       0.92437   0.07532   0.24987   0.52462
O          O       0.61267   0.15317   0.89348  -0.64941
O          O       0.67179   0.97341   0.91988  -0.69104
O          O       0.59919   0.84623   0.12748  -0.62112
O          O       0.53182   0.02399   0.09975  -0.73298
O          O       0.71340   0.71783   0.50184  -0.60628
O          O       0.74260   0.63534   0.39885  -0.63606
O          O       0.05585   0.83370   0.79974  -0.32785
O          O       0.57833   0.10287   0.43637  -0.33453
O          O       0.53700   0.20092   0.30688  -0.31926
O          O       0.84707   0.38728   0.60643  -0.64841
O          O       0.02704   0.32847   0.57891  -0.69091
O          O       0.15305   0.40448   0.37116  -0.62374
O          O       0.97457   0.46816   0.40048  -0.73191
O          O       0.28461   0.28725  -0.00189  -0.60870
O          O       0.36324   0.25328   0.10477  -0.63765
O          O       0.16674   0.94424   0.70050  -0.32700
O          O       0.89868   0.42013   0.06334  -0.33554
O          O       0.79951   0.46302   0.19221  -0.31911
O          O       0.38734   0.84684   0.10652  -0.64953
O          O       0.32822   0.02660   0.08012  -0.69129
O          O       0.40082   0.15377   0.87252  -0.62074
O          O       0.46819   0.97602   0.90025  -0.73298
O          O       0.28661   0.28218   0.49816  -0.60673
O          O       0.25741   0.36466   0.60115  -0.63560
O          O       0.94415   0.16630   0.20026  -0.32781
O          O       0.42168   0.89713   0.56363  -0.33502
O          O       0.46301   0.79909   0.69312  -0.31936
O          O       0.15294   0.61272   0.39357  -0.64813
O          O       0.97297   0.67153   0.42109  -0.69120
O          O       0.84696   0.59553   0.62884  -0.62423
O          O       0.02544   0.53184   0.59952  -0.73190
O          O       0.71540   0.71275   0.00189  -0.60838
O          O       0.63677   0.74672   0.89523  -0.63801
O          O       0.83327   0.05576   0.29950  -0.32749
O          O       0.10133   0.57987   0.93666  -0.33515
O          O       0.20050   0.53699   0.80779  -0.31886

