data_crystal

_audit_creation_method 'AiiDA-DDEC plugin'

_cell_length_a         6.99335
_cell_length_b        21.41927
_cell_length_c        21.33976

_cell_angle_alpha     120.11220
_cell_angle_beta     90.02148
_cell_angle_gamma     90.00401

_symmetry_space_group_name_Hall 'P 1'
_symmetry_space_group_name_H-M  'P 1'

loop_
_symmetry_equiv_pos_as_xyz
 'x,y,z'

loop_
_atom_site_label
_atom_site_type_symbol
_atom_site_fract_x
_atom_site_fract_y
_atom_site_fract_z
_atom_site_charge
Ga         Ga     -0.00000   0.50000   0.50000   1.48201
Ga         Ga      0.50000   0.50000   0.50000   1.48038
Ga         Ga      0.50000   0.00000   0.50000   1.47979
Ga         Ga      0.00000   0.00000   0.50000   1.48080
Ga         Ga     -0.00001  -0.00003   0.00000   1.41851
Ga         Ga      0.50000   0.00001  -0.00000   1.41753
H          H       0.94383   0.32293   0.52811   0.12597
H          H       0.94422   0.67845   0.70412   0.12488
H          H       0.94389   0.79421   0.82456   0.13185
H          H       0.24919   0.49818   0.41257   0.42668
H          H       0.44393   0.67699   0.47194   0.12530
H          H       0.44406   0.32143   0.29580   0.12524
H          H       0.44374   0.20566   0.17532   0.13157
H          H       0.75081   0.50183   0.58743   0.42667
H          H       0.55636   0.20525   0.52742   0.12552
H          H       0.55602   0.02553   0.70431   0.12482
H          H       0.55589   0.03087   0.82507   0.13195
H          H       0.24913   0.91424   0.41283   0.42689
H          H       0.05606   0.79484   0.47260   0.12507
H          H       0.05611   0.97442   0.29579   0.12444
H          H       0.05588   0.96912   0.17503   0.13115
H          H       0.75086   0.08576   0.58717   0.42709
H          H       0.05616   0.67708   0.47190   0.12571
H          H       0.05578   0.32155   0.29588   0.12488
H          H       0.05610   0.20579   0.17544   0.13167
H          H       0.55606   0.32302   0.52807   0.12529
H          H       0.55594   0.67857   0.70421   0.12508
H          H       0.55626   0.79434   0.82469   0.13160
H          H       0.44363   0.79476   0.47258   0.12564
H          H       0.44397   0.97448   0.29570   0.12490
H          H       0.44410   0.96913   0.17494   0.13194
H          H       0.94393   0.20517   0.52740   0.12507
H          H       0.94388   0.02558   0.70421   0.12435
H          H       0.94411   0.03088   0.82497   0.13111
C          C       0.07640   0.29682   0.52833  -0.09809
C          C       0.07640   0.70397   0.73153  -0.09452
C          C       0.07605   0.76778   0.79796  -0.09681
C          C       0.57637   0.70315   0.47167  -0.09619
C          C       0.57614   0.29592   0.26838  -0.09610
C          C       0.57590   0.23212   0.20195  -0.09511
C          C       0.42372   0.23168   0.52794  -0.09773
C          C       0.42372   0.02772   0.73174  -0.09428
C          C       0.42391   0.03056   0.79828  -0.09677
C          C       0.92350   0.76836   0.47210  -0.09618
C          C       0.92372   0.97223   0.26835  -0.09440
C          C       0.92394   0.96942   0.20181  -0.09576
C          C       0.92359   0.70318   0.47167  -0.09811
C          C       0.92360   0.29603   0.26847  -0.09434
C          C       0.92395   0.23222   0.20204  -0.09694
C          C       0.42362   0.29686   0.52833  -0.09607
C          C       0.42386   0.70408   0.73163  -0.09620
C          C       0.42410   0.76788   0.79805  -0.09510
C          C       0.57628   0.76833   0.47206  -0.09764
C          C       0.57628   0.97228   0.26826  -0.09424
C          C       0.57608   0.96945   0.20172  -0.09654
C          C       0.07650   0.23164   0.52791  -0.09621
C          C       0.07627   0.02777   0.73165  -0.09408
C          C       0.07605   0.03058   0.79820  -0.09577
C          C       0.24994   0.39691   0.52302   0.61232
C          C       0.24998   0.32932   0.52764  -0.03514
C          C       0.25038   0.60365   0.62617   0.61377
C          C       0.25019   0.67186   0.69812  -0.03414
C          C       0.25005   0.79964   0.83148  -0.02376
C          C       0.25013   0.87059   0.90140   0.59386
C          C       0.75005   0.60309   0.47698   0.61240
C          C       0.75001   0.67069   0.47237  -0.03511
C          C       0.74961   0.39635   0.37383   0.61372
C          C       0.74981   0.32814   0.30188  -0.03422
C          C       0.74995   0.20036   0.16852  -0.02369
C          C       0.74986   0.12941   0.09860   0.59397
C          C       0.24974   0.12585   0.52180   0.61111
C          C       0.25014   0.19825   0.52677  -0.03314
C          C       0.25063   0.02334   0.62650   0.61452
C          C       0.25006   0.02663   0.69828  -0.03533
C          C       0.24995   0.03251   0.83184  -0.02317
C          C       0.24982   0.03220   0.90214   0.59212
C          C       0.75025   0.87416   0.47821   0.61091
C          C       0.74986   0.80175   0.47323  -0.03306
C          C       0.74936   0.97667   0.37350   0.61484
C          C       0.74993   0.97338   0.30172  -0.03535
C          C       0.75004   0.96749   0.16816  -0.02338
C          C       0.75018   0.96780   0.09787   0.59200
O          O       0.08594   0.42215   0.52101  -0.57217
O          O       0.08619   0.57776   0.59939  -0.57159
O          O       0.08609   0.89742   0.92649  -0.51699
O          O       0.58611   0.57772   0.47879  -0.57240
O          O       0.58547   0.42219   0.40063  -0.57078
O          O       0.58576   0.10272   0.07340  -0.51738
O          O       0.41327   0.09898   0.52120  -0.57268
O          O       0.41509   0.02163   0.59951  -0.57118
O          O       0.41380   0.03060   0.92736  -0.51821
O          O       0.91456   0.90172   0.48151  -0.57148
O          O       0.91319   0.97644   0.40001  -0.57226
O          O       0.91424   0.96875   0.07241  -0.51739
O          O       0.91406   0.57786   0.47899  -0.57236
O          O       0.91381   0.42225   0.40061  -0.57168
O          O       0.91389   0.10257   0.07350  -0.51703
O          O       0.41389   0.42228   0.52121  -0.57254
O          O       0.41453   0.57781   0.59937  -0.57091
O          O       0.41422   0.89729   0.92660  -0.51734
O          O       0.58672   0.90103   0.47880  -0.57250
O          O       0.58490   0.97837   0.40049  -0.57124
O          O       0.58621   0.96941   0.07265  -0.51802
O          O       0.08544   0.09828   0.51849  -0.57149
O          O       0.08681   0.02356   0.59999  -0.57195
O          O       0.08577   0.03124   0.92760  -0.51704
O          O       0.24934   0.50114   0.45949  -0.88120
O          O       0.75066   0.49887   0.54052  -0.88119
O          O       0.24925   0.95819   0.45974  -0.88054
O          O       0.75075   0.04181   0.54026  -0.88058
O          O       0.24945   0.01997   0.04159  -0.65599
O          O       0.75053   0.98003   0.95842  -0.65615

