data_crystal

_audit_creation_method 'AiiDA-DDEC plugin'

_cell_length_a         4.31346
_cell_length_b        17.33602
_cell_length_c        17.34427

_cell_angle_alpha     88.98231
_cell_angle_beta     82.57375
_cell_angle_gamma     82.44104

_symmetry_space_group_name_Hall 'P 1'
_symmetry_space_group_name_H-M  'P 1'

loop_
_symmetry_equiv_pos_as_xyz
 'x,y,z'

loop_
_atom_site_label
_atom_site_type_symbol
_atom_site_fract_x
_atom_site_fract_y
_atom_site_fract_z
_atom_site_charge
Cu         Cu      0.50000   0.50001   0.50000   0.87216
Cu         Cu      0.50001  -0.00000  -0.00000   0.87500
Cu         Cu      0.50001   0.50000  -0.00000   0.87179
Cu         Cu     -0.00003   0.00001   0.49999   0.87070
H          H       0.95593   0.60572   0.27304   0.11003
H          H       0.16867   0.51374   0.29267   0.15933
H          H       0.44664   0.57719   0.17160   0.12677
H          H       0.84079   0.89477   0.22568   0.11051
H          H       0.97438   0.98681   0.20522   0.16131
H          H       0.19608   0.92461   0.32845   0.12772
H          H       0.07038   0.27270   0.89456   0.10946
H          H       0.18651   0.29219   0.98655   0.16018
H          H       0.53117   0.17223   0.92243   0.12568
H          H       0.23309   0.22479   0.60532   0.11001
H          H       0.46374   0.20490   0.51333   0.15973
H          H       0.61936   0.32859   0.57573   0.12818
H          H       0.04406   0.39429   0.72697   0.10984
H          H       0.83133   0.48626   0.70733   0.15949
H          H       0.55337   0.42282   0.82839   0.12670
H          H       0.15919   0.10523   0.77432   0.11069
H          H       0.02562   0.01320   0.79478   0.16124
H          H       0.80393   0.07540   0.67155   0.12775
H          H       0.92962   0.72731   0.10544   0.10976
H          H       0.81349   0.70781   0.01345   0.16048
H          H       0.46883   0.82777   0.07757   0.12581
H          H       0.76689   0.77522   0.39468   0.11005
H          H       0.53624   0.79511   0.48667   0.15971
H          H       0.38062   0.67142   0.42427   0.12815
C          C       0.69096   0.52585   0.34367   0.57403
C          C       0.93334   0.54338   0.27774  -0.27365
C          C       0.64924   0.53376   0.15948   0.07308
C          C       0.56055   0.97425   0.15577   0.57272
C          C       0.75549   0.95702   0.22105  -0.27727
C          C       0.34395   0.96724   0.34034   0.07180
C          C       0.72192   0.34394   0.97414   0.57210
C          C       0.98223   0.27760   0.95685  -0.27322
C          C       0.68608   0.15979   0.96631   0.07728
C          C       0.03639   0.15574   0.52528   0.57073
C          C       0.21334   0.22066   0.54307  -0.27415
C          C       0.81254   0.34046   0.53330   0.07122
C          C       0.30904   0.47416   0.65632   0.57435
C          C       0.06666   0.45662   0.72225  -0.27389
C          C       0.35076   0.46625   0.84052   0.07287
C          C       0.43946   0.02576   0.84423   0.57271
C          C       0.24450   0.04299   0.77895  -0.27729
C          C       0.65604   0.03277   0.65966   0.07222
C          C       0.27808   0.65607   0.02586   0.57273
C          C       0.01777   0.72240   0.04315  -0.26431
C          C       0.31393   0.84021   0.03369   0.08660
C          C       0.96360   0.84427   0.47471   0.57046
C          C       0.78664   0.77936   0.45692  -0.27415
C          C       0.18744   0.65956   0.46669   0.07149
N          N       0.87911   0.51398   0.20357   0.18150
N          N       0.09123   0.45605   0.16696  -0.07755
N          N       0.98890   0.44350   0.10087  -0.01181
N          N       0.71739   0.49053   0.09507  -0.20677
N          N       0.59782   0.98661   0.29559   0.18256
N          N       0.71748   0.04329   0.33231  -0.07827
N          N       0.53815   0.05548   0.39917  -0.01140
N          N       0.30670   0.00948   0.40527  -0.20554
N          N       0.89506   0.20360   0.98639   0.17916
N          N       0.04330   0.16694   0.04488  -0.07585
N          N       0.92583   0.10114   0.05751  -0.01291
N          N       0.70565   0.09548   0.00992  -0.21025
N          N       0.08696   0.29556   0.51397   0.18161
N          N       0.26715   0.33248   0.45778  -0.07659
N          N       0.10120   0.39965   0.44578  -0.01209
N          N       0.82072   0.40569   0.49141  -0.20582
N          N       0.12089   0.48602   0.79643   0.18150
N          N       0.90878   0.54395   0.83304  -0.07727
N          N       0.01110   0.55651   0.89913  -0.01149
N          N       0.28261   0.50948   0.90493  -0.20700
N          N       0.40218   0.01340   0.70441   0.18249
N          N       0.28250   0.95673   0.66768  -0.07842
N          N       0.46182   0.94454   0.60082  -0.01166
N          N       0.69327   0.99054   0.59473  -0.20556
N          N       0.10495   0.79640   0.01360   0.14829
N          N       0.95671   0.83306   0.95512  -0.06726
N          N       0.07418   0.89886   0.94248  -0.01145
N          N       0.29436   0.90452   0.99008  -0.20923
N          N       0.91302   0.70445   0.48603   0.18171
N          N       0.73284   0.66754   0.54222  -0.07608
N          N       0.89879   0.60037   0.55422  -0.01274
N          N       0.17927   0.59432   0.50859  -0.20613
O          O       0.72893   0.55402   0.40995  -0.59305
O          O       0.48988   0.48373   0.33168  -0.49724
O          O       0.69542   0.94589   0.08940  -0.59491
O          O       0.30238   0.01652   0.16799  -0.49503
O          O       0.79053   0.41019   0.94613  -0.59135
O          O       0.47557   0.33203   0.01593  -0.49798
O          O       0.13945   0.08928   0.55404  -0.59350
O          O       0.82506   0.16823   0.48229  -0.49525
O          O       0.27106   0.44599   0.59005  -0.59333
O          O       0.51012   0.51628   0.66833  -0.49721
O          O       0.30459   0.05412   0.91060  -0.59479
O          O       0.69762   0.98348   0.83200  -0.49525
O          O       0.20947   0.58981   0.05387  -0.59158
O          O       0.52443   0.66797   0.98408  -0.49761
O          O       0.86053   0.91073   0.44596  -0.59303
O          O       0.17494   0.83178   0.51770  -0.49526

