data_crystal

_audit_creation_method 'AiiDA-DDEC plugin'

_cell_length_a        14.52828
_cell_length_b        14.53188
_cell_length_c        14.53208

_cell_angle_alpha     107.17819
_cell_angle_beta     107.14410
_cell_angle_gamma     107.14481

_symmetry_space_group_name_Hall 'P 1'
_symmetry_space_group_name_H-M  'P 1'

loop_
_symmetry_equiv_pos_as_xyz
 'x,y,z'

loop_
_atom_site_label
_atom_site_type_symbol
_atom_site_fract_x
_atom_site_fract_y
_atom_site_fract_z
_atom_site_charge
Zn         Zn      0.75000   0.17623   0.32377   0.96598
Zn         Zn      0.75000   0.30974   0.19026   0.99440
Zn         Zn      0.32376   0.75004   0.17622   0.96583
Zn         Zn      0.19022   0.75001   0.30975   0.99434
Zn         Zn      0.17624   0.32378   0.74996   0.96577
Zn         Zn      0.30978   0.19025   0.75000   0.99435
Zn         Zn      0.25000   0.82377   0.67623   0.96599
Zn         Zn      0.25000   0.69026   0.80974   0.99439
Zn         Zn      0.67624   0.24996   0.82378   0.96586
Zn         Zn      0.80978   0.24999   0.69025   0.99435
Zn         Zn      0.82376   0.67622   0.25004   0.96572
Zn         Zn      0.69022   0.80976   0.25001   0.99427
H          H       0.53732   0.00320   0.17862   0.13896
H          H       0.17862   0.53725   0.00309   0.13889
H          H       0.00321   0.17864   0.53731   0.13903
H          H       0.32137   0.49691   0.96276   0.13925
H          H       0.49679   0.96270   0.32136   0.13894
H          H       0.96266   0.32137   0.49680   0.13904
H          H       0.46267   0.99680   0.82138   0.13897
H          H       0.82137   0.46275   0.99691   0.13906
H          H       0.99679   0.82136   0.46269   0.13895
H          H       0.67862   0.50309   0.03724   0.13897
H          H       0.50321   0.03731   0.67864   0.13911
H          H       0.03733   0.67863   0.50320   0.13906
C          C       0.59061   0.08381   0.08972   0.30084
C          C       0.56928   0.08196   0.98701  -0.14766
C          C       0.52110   0.00167   0.10010  -0.20050
C          C       0.66364   0.13801   0.46547   0.61127
C          C       0.08972   0.59060   0.08380   0.30056
C          C       0.98701   0.56931   0.08201  -0.14829
C          C       0.10011   0.52108   0.00163  -0.20012
C          C       0.46543   0.66365   0.13808   0.61102
C          C       0.08384   0.08973   0.59058   0.30073
C          C       0.08199   0.98700   0.56927  -0.14775
C          C       0.00166   0.10011   0.52109  -0.20054
C          C       0.13799   0.46546   0.66360   0.61125
C          C       0.41027   0.41620   0.90941   0.30078
C          C       0.51298   0.41799   0.93069  -0.14824
C          C       0.39989   0.49838   0.97893  -0.20021
C          C       0.03457   0.36192   0.83636   0.61114
C          C       0.41616   0.90943   0.41027   0.30077
C          C       0.41801   0.93074   0.51300  -0.14809
C          C       0.49833   0.97892   0.39990  -0.20057
C          C       0.36200   0.83640   0.03454   0.61124
C          C       0.90938   0.41028   0.41619   0.30081
C          C       0.93072   0.51300   0.41804  -0.14792
C          C       0.97889   0.39990   0.49834  -0.20063
C          C       0.83636   0.03454   0.36200   0.61119
C          C       0.40938   0.91619   0.91028   0.30099
C          C       0.43071   0.91804   0.01300  -0.14779
C          C       0.47889  -0.00167   0.89991  -0.20071
C          C       0.33635   0.86199   0.53453   0.61107
C          C       0.91027   0.40940   0.91620   0.30089
C          C       0.01299   0.43069   0.91799  -0.14832
C          C       0.89989   0.47892  -0.00162  -0.20012
C          C       0.53456   0.33636   0.86192   0.61114
C          C       0.91615   0.91027   0.40942   0.30082
C          C       0.91801   0.01300   0.43074  -0.14796
C          C      -0.00167   0.89990   0.47891  -0.20081
C          C       0.86200   0.53455   0.33641   0.61120
C          C       0.58972   0.58380   0.09060   0.30045
C          C       0.48701   0.58201   0.06931  -0.14820
C          C       0.60011   0.50162   0.02107  -0.20018
C          C       0.96543   0.63808   0.16364   0.61103
C          C       0.58384   0.09058   0.58973   0.30059
C          C       0.58199   0.06927   0.48700  -0.14789
C          C       0.50166   0.02109   0.60010  -0.20031
C          C       0.63800   0.16360   0.96547   0.61116
C          C       0.09061   0.58972   0.58381   0.30044
C          C       0.06928   0.48700   0.58196  -0.14775
C          C       0.02111   0.60010   0.50167  -0.20050
C          C       0.16364   0.96547   0.63800   0.61127
O          O       0.75676   0.20615   0.53697  -0.56699
O          O       0.63834   0.12509   0.36888  -0.52117
O          O       0.67604   0.16239   0.17655  -0.59482
O          O       0.53691   0.75678   0.20625  -0.56646
O          O       0.36883   0.63833   0.12514  -0.52110
O          O       0.17654   0.67604   0.16240  -0.59466
O          O       0.20616   0.53697   0.75670  -0.56684
O          O       0.12502   0.36885   0.63833  -0.52129
O          O       0.16242   0.17655   0.67601  -0.59452
O          O       0.96308   0.29375   0.74323  -0.56678
O          O       0.13117   0.37487   0.86167  -0.52117
O          O       0.32345   0.33760   0.82397  -0.59476
O          O       0.29384   0.74329   0.96302  -0.56686
O          O       0.37496   0.86168   0.13114  -0.52111
O          O       0.33757   0.82399   0.32345  -0.59457
O          O       0.74324   0.96304   0.29386  -0.56670
O          O       0.86166   0.13113   0.37493  -0.52125
O          O       0.82395   0.32345   0.33761  -0.59476
O          O       0.24323   0.79386   0.46304  -0.56676
O          O       0.36166   0.87492   0.63112  -0.52115
O          O       0.32395   0.83761   0.82345  -0.59479
O          O       0.46308   0.24322   0.79376  -0.56672
O          O       0.63117   0.36167   0.87486  -0.52125
O          O       0.82345   0.32397   0.83760  -0.59480
O          O       0.79384   0.46303   0.24331  -0.56686
O          O       0.87498   0.63116   0.36168  -0.52097
O          O       0.83757   0.82345   0.32399  -0.59449
O          O       0.03691   0.70626   0.25677  -0.56657
O          O       0.86882   0.62514   0.13833  -0.52097
O          O       0.67654   0.66240   0.17603  -0.59459
O          O       0.70615   0.25671   0.03698  -0.56687
O          O       0.62504   0.13833   0.86886  -0.52129
O          O       0.66242   0.17601   0.67656  -0.59449
O          O       0.25675   0.03696   0.70615  -0.56685
O          O       0.13834   0.86888   0.62507  -0.52124
O          O       0.17604   0.67656   0.66240  -0.59470

