data_crystal

_audit_creation_method 'AiiDA-DDEC plugin'

_cell_length_a         9.57510
_cell_length_b        17.04852
_cell_length_c        17.04929

_cell_angle_alpha     85.33322
_cell_angle_beta     73.48396
_cell_angle_gamma     73.46589

_symmetry_space_group_name_Hall 'P 1'
_symmetry_space_group_name_H-M  'P 1'

loop_
_symmetry_equiv_pos_as_xyz
 'x,y,z'

loop_
_atom_site_label
_atom_site_type_symbol
_atom_site_fract_x
_atom_site_fract_y
_atom_site_fract_z
_atom_site_charge
Cu         Cu      0.50000   0.50000   0.50000   0.16759
Cu         Cu      0.50000   0.00000   0.00000   0.16648
Cu         Cu      0.50000   0.50000   0.00000   0.16674
Cu         Cu     -0.00000   0.00000   0.50000   0.16613
H          H       0.35085   0.46554   0.38769   0.08365
H          H       0.15848   0.54592   0.32123   0.12630
H          H       0.18183   0.76459   0.42415   0.13399
H          H       0.37281   0.67603   0.48849   0.08158
H          H       0.08452   0.65132   0.23152   0.08024
H          H       0.92959   0.63255   0.31146   0.07986
H          H       0.20145   0.03411   0.11341   0.08480
H          H       0.02436   0.95289   0.17909   0.12580
H          H       0.37548   0.73517   0.07410   0.13342
H          H       0.53980   0.82479   0.01075   0.08127
H          H       0.96484   0.84756   0.26757   0.08015
H          H       0.87285   0.86536   0.18728   0.07917
H          H       0.31458   0.38742   0.03465   0.08441
H          H       0.20419   0.32104   0.95411   0.12575
H          H       0.44862   0.42484   0.73566   0.13425
H          H       0.54911   0.48903   0.82439   0.08122
H          H       0.23276   0.23263   0.84886   0.07968
H          H       0.06019   0.31346   0.86692   0.07992
H          H       0.73736   0.11298   0.46600   0.08679
H          H       0.47788   0.17905   0.54712   0.12626
H          H       0.60822   0.07485   0.76504   0.13391
H          H       0.86378   0.01101   0.67554   0.08191
H          H       0.31462   0.26855   0.65236   0.08040
H          H       0.23892   0.18904   0.63430   0.07987
H          H       0.64915   0.53446   0.61231   0.08388
H          H       0.84152   0.45408   0.67877   0.12634
H          H       0.81817   0.23541   0.57585   0.13381
H          H       0.62718   0.32397   0.51151   0.08152
H          H       0.91547   0.34869   0.76848   0.08039
H          H       0.07040   0.36746   0.68854   0.07997
H          H       0.79854   0.96590   0.88659   0.08459
H          H       0.97563   0.04712   0.82091   0.12559
H          H       0.62452   0.26483   0.92590   0.13363
H          H       0.46019   0.17521   0.98925   0.08153
H          H       0.03516   0.15244   0.73243   0.08005
H          H       0.12714   0.13465   0.81273   0.07893
H          H       0.68541   0.61259   0.96535   0.08443
H          H       0.79580   0.67897   0.04589   0.12580
H          H       0.55138   0.57516   0.26434   0.13426
H          H       0.45088   0.51098   0.17561   0.08118
H          H       0.76724   0.76738   0.15114   0.07989
H          H       0.93981   0.68655   0.13308   0.07965
H          H       0.26263   0.88703   0.53400   0.08447
H          H       0.52212   0.82096   0.45288   0.12604
H          H       0.39177   0.92516   0.23496   0.13401
H          H       0.13622   0.98899   0.32446   0.08207
H          H       0.68538   0.73145   0.34764   0.08023
H          H       0.76107   0.81096   0.36570   0.08004
C          C       0.30961   0.53146   0.39518   0.03027
C          C       0.20152   0.57726   0.35805  -0.27136
C          C       0.14917   0.66248   0.36940   0.24065
C          C       0.21490   0.69859   0.41633  -0.24300
C          C       0.32175   0.64962   0.45172   0.04374
C          C       0.98630   0.67943   0.28217  -0.02924
C          C       0.23512   0.96828   0.10527   0.02799
C          C       0.13646   0.92201   0.14195  -0.26943
C          C       0.18251   0.83688   0.12992   0.24203
C          C       0.33245   0.80109   0.08269  -0.24163
C          C       0.42469   0.85059   0.04779   0.04184
C          C       0.94818   0.81901   0.21657  -0.03026
C          C       0.34027   0.39514   0.96877   0.03003
C          C       0.27868   0.35806   0.92285  -0.27181
C          C       0.31234   0.36975   0.83765   0.24350
C          C       0.41469   0.41673   0.80164  -0.24378
C          C       0.47167   0.45205   0.85076   0.04243
C          C       0.16449   0.28371   0.82034  -0.02973
C          C       0.70423   0.10526   0.53190   0.02823
C          C       0.55880   0.14213   0.57808  -0.27121
C          C       0.51879   0.13040   0.66322   0.24078
C          C       0.63235   0.08319   0.69910  -0.24298
C          C       0.77472   0.04808   0.64974   0.04350
C          C       0.26750   0.21804   0.68076  -0.03100
C          C       0.69038   0.46854   0.60482   0.03063
C          C       0.79847   0.42274   0.64195  -0.27164
C          C       0.85082   0.33753   0.63060   0.24090
C          C       0.78510   0.30141   0.58367  -0.24330
C          C       0.67824   0.35039   0.54828   0.04390
C          C       0.01369   0.32058   0.71783  -0.02908
C          C       0.76487   0.03172   0.89473   0.02771
C          C       0.86353   0.07800   0.85805  -0.26943
C          C       0.81749   0.16313   0.87008   0.24201
C          C       0.66754   0.19892   0.91731  -0.24154
C          C       0.57530   0.14941   0.95221   0.04193
C          C       0.05181   0.18100   0.78343  -0.03030
C          C       0.65973   0.60486   0.03123   0.03015
C          C       0.72131   0.64194   0.07715  -0.27166
C          C       0.68766   0.63026   0.16235   0.24332
C          C       0.58531   0.58327   0.19836  -0.24368
C          C       0.52832   0.54796   0.14924   0.04233
C          C       0.83550   0.71629   0.17966  -0.02945
C          C       0.29576   0.89474   0.46810   0.03032
C          C       0.44119   0.85788   0.42192  -0.27107
C          C       0.48121   0.86961   0.33678   0.24082
C          C       0.36764   0.91682   0.30090  -0.24313
C          C       0.22527   0.95193   0.35026   0.04360
C          C       0.73249   0.78197   0.31924  -0.03115
C          C       0.87572   0.74899   0.24932   0.05468
C          C       0.12428   0.25101   0.75068   0.05474
N          N       0.37019   0.56538   0.44417  -0.25073
N          N       0.37958   0.93478   0.05598  -0.24866
N          N       0.43494   0.44435   0.93501  -0.24957
N          N       0.81461   0.05611   0.56557  -0.25064
N          N       0.62980   0.43463   0.55584  -0.25077
N          N       0.62042   0.06523   0.94402  -0.24868
N          N       0.56505   0.55566   0.06500  -0.24981
N          N       0.18538   0.94390   0.43443  -0.25040
O          O       0.03601   0.71395   0.34010  -0.20302
O          O       0.09189   0.78531   0.15890  -0.20383
O          O       0.25079   0.34096   0.78608  -0.20396
O          O       0.37615   0.15971   0.71474  -0.20205
O          O       0.96398   0.28606   0.65990  -0.20338
O          O       0.90810   0.21470   0.84110  -0.20354
O          O       0.74921   0.65905   0.21392  -0.20413
O          O       0.62384   0.84029   0.28526  -0.20192

