data_crystal

_audit_creation_method 'AiiDA-DDEC plugin'

_cell_length_a        10.50684
_cell_length_b        10.52222
_cell_length_c        12.52831

_cell_angle_alpha     81.43790
_cell_angle_beta     81.30540
_cell_angle_gamma     74.72438

_symmetry_space_group_name_Hall 'P 1'
_symmetry_space_group_name_H-M  'P 1'

loop_
_symmetry_equiv_pos_as_xyz
 'x,y,z'

loop_
_atom_site_label
_atom_site_type_symbol
_atom_site_fract_x
_atom_site_fract_y
_atom_site_fract_z
_atom_site_charge
Zn         Zn      0.33086   0.66864   0.25125   0.97522
Zn         Zn      0.66922   0.33136   0.74868   0.97552
H          H       0.35156   0.19708   0.64808   0.25125
H          H       0.28976   0.92637   0.50796   0.14337
H          H       0.31771   0.33577   0.49571   0.15856
H          H       0.32232   0.16637   0.20296   0.11604
H          H       0.39478   0.01239   0.76242   0.12167
H          H       0.45446   0.93087   0.64479   0.08891
H          H       0.08587   0.06413   0.72121   0.11123
H          H       0.42337   0.72567   0.71857   0.10999
H          H       0.80252   0.64857   0.85191   0.25297
H          H       0.07355   0.71071   0.99118   0.14334
H          H       0.66314   0.68295   0.00505   0.15718
H          H       0.83445   0.67774   0.29699   0.11686
H          H       0.98871   0.60514   0.73754   0.12158
H          H       0.07041   0.54646   0.85494   0.08749
H          H       0.93575   0.91447   0.77904   0.11175
H          H       0.27509   0.57761   0.78064   0.10993
H          H       0.64849   0.80327   0.35174   0.25160
H          H       0.71024   0.07384   0.49197   0.14326
H          H       0.68267   0.66441   0.50407   0.15839
H          H       0.67782   0.83374   0.79694   0.11610
H          H       0.60505   0.98838   0.23750   0.12220
H          H       0.54557   0.06988   0.35514   0.08879
H          H       0.91407   0.93632   0.27860   0.11215
H          H       0.57679   0.27503   0.28121   0.10973
H          H       0.19772   0.35164   0.14799   0.25357
H          H       0.92675   0.28901   0.00879   0.14381
H          H       0.33691   0.31736   0.99481   0.15707
H          H       0.16553   0.32265   0.70285   0.11721
H          H       0.01163   0.39512   0.26237   0.12237
H          H       0.93006   0.45386   0.14492   0.08749
H          H       0.06434   0.08586   0.22083   0.11147
H          H       0.72527   0.42290   0.21916   0.11039
C          C       0.31349   0.92130   0.28942   0.54115
C          C       0.29789   0.03866   0.35110  -0.00491
C          C       0.29544   0.02196   0.46313  -0.16197
C          C       0.30626   0.12876   0.51651   0.24402
C          C       0.30738   0.25477   0.45544  -0.13473
C          C       0.30745   0.27062   0.34374  -0.03348
C          C       0.30624   0.16149   0.29101  -0.08421
C          C       0.31917   0.40042   0.27847   0.56340
C          C       0.36468   0.98978   0.68845  -0.08867
C          C       0.26520   0.90545   0.71782   0.07583
C          C       0.12763   0.95755   0.73417  -0.12590
C          C       0.31691   0.76787   0.73293  -0.11790
C          C       0.07879   0.68479   0.21091   0.54413
C          C       0.96158   0.70204   0.14872  -0.00652
C          C       0.97810   0.70476   0.03666  -0.16229
C          C       0.87094   0.69387   0.98360   0.24304
C          C       0.74459   0.69307   0.04498  -0.13102
C          C       0.72888   0.69319   0.15669  -0.03169
C          C       0.83843   0.69419   0.20905  -0.08481
C          C       0.59929   0.68104   0.22277   0.55734
C          C       0.01077   0.63565   0.81152  -0.08536
C          C       0.09481   0.73543   0.78214   0.07619
C          C       0.04254   0.87275   0.76594  -0.12785
C          C       0.23267   0.68387   0.76660  -0.12027
C          C       0.68655   0.07885   0.71040   0.54139
C          C       0.70222   0.96145   0.64880  -0.00496
C          C       0.70464   0.97823   0.53677  -0.16186
C          C       0.69381   0.87149   0.48333   0.24294
C          C       0.69292   0.74539   0.54439  -0.13415
C          C       0.69288   0.72941   0.65613  -0.03435
C          C       0.69397   0.83857   0.70888  -0.08400
C          C       0.68093   0.59968   0.72152   0.56518
C          C       0.63526   0.01083   0.31147  -0.08790
C          C       0.73485   0.09507   0.28205   0.07569
C          C       0.87240   0.04291   0.26565  -0.12802
C          C       0.68322   0.23267   0.26686  -0.11840
C          C       0.92122   0.31529   0.78916   0.54476
C          C       0.03856   0.29813   0.85123  -0.00646
C          C       0.02213   0.29525   0.96332  -0.16309
C          C       0.12927   0.30636   0.01629   0.24299
C          C       0.25558   0.30700   0.95488  -0.13167
C          C       0.27130   0.30687   0.84318  -0.03079
C          C       0.16169   0.30600   0.79079  -0.08515
C          C       0.40100   0.31886   0.77731   0.55729
C          C       0.98956   0.36463   0.18839  -0.08669
C          C       0.90539   0.26498   0.21776   0.07575
C          C       0.95757   0.12764   0.23391  -0.12656
C          C       0.76754   0.31661   0.23322  -0.12006
N          N       0.32386   0.11604   0.62262  -0.18437
N          N       0.88395   0.67559   0.87757  -0.18468
N          N       0.67592   0.88445   0.37725  -0.18420
N          N       0.11635   0.32457   0.12234  -0.18457
O          O       0.28046   0.81873   0.34379  -0.54191
O          O       0.36238   0.93200   0.19186  -0.49491
O          O       0.29968   0.41810   0.17932  -0.52018
O          O       0.35045   0.48292   0.32826  -0.52355
O          O       0.18119   0.72017   0.15853  -0.54022
O          O       0.06773   0.63188   0.30725  -0.49397
O          O       0.58181   0.70110   0.32179  -0.51650
O          O       0.51683   0.64851   0.17368  -0.52095
O          O       0.71945   0.18142   0.65597  -0.54154
O          O       0.63777   0.06812   0.80802  -0.49556
O          O       0.70066   0.58194   0.82062  -0.52072
O          O       0.64922   0.51732   0.67183  -0.52423
O          O       0.81883   0.27987   0.84152  -0.54031
O          O       0.93219   0.36798   0.69275  -0.49465
O          O       0.41864   0.29856   0.67830  -0.51639
O          O       0.48333   0.35162   0.82636  -0.52048

