data_crystal

_audit_creation_method 'AiiDA-DDEC plugin'

_cell_length_a         7.48837
_cell_length_b        12.96554
_cell_length_c        15.88162

_cell_angle_alpha     114.01895
_cell_angle_beta     99.64351
_cell_angle_gamma     90.00808

_symmetry_space_group_name_Hall 'P 1'
_symmetry_space_group_name_H-M  'P 1'

loop_
_symmetry_equiv_pos_as_xyz
 'x,y,z'

loop_
_atom_site_label
_atom_site_type_symbol
_atom_site_fract_x
_atom_site_fract_y
_atom_site_fract_z
_atom_site_charge
La         La      0.70383   0.10340   0.80023   2.01833
La         La      0.79725   0.30391   0.19978   2.01498
La         La      0.29617   0.89660   0.19977   2.01833
La         La      0.20275   0.69609   0.80023   2.01498
H          H       0.85545   0.06005   0.60821   0.36689
H          H       0.47104   0.57961   0.34628   0.35222
H          H       0.73666   0.34473   0.79866   0.34963
H          H       0.63863   0.94659   0.46623   0.13468
H          H       0.72558   0.63988   0.57695   0.14144
H          H       0.14552   0.47439   0.14112   0.14266
H          H       0.64423   0.45231   0.39145   0.36710
H          H       0.02907   0.23274   0.65312   0.35279
H          H       0.76370   0.54654   0.20183   0.35148
H          H       0.85979   0.48017   0.53348   0.13510
H          H       0.77371   0.06327   0.42294   0.14088
H          H       0.35472   0.33343   0.85922   0.14291
H          H       0.14455   0.93995   0.39179   0.36702
H          H       0.52895   0.42039   0.65372   0.35229
H          H       0.26334   0.65527   0.20134   0.34965
H          H       0.36136   0.05341   0.53377   0.13480
H          H       0.27442   0.36012   0.42306   0.14129
H          H       0.85447   0.52561   0.85889   0.14253
H          H       0.35577   0.54769   0.60856   0.36709
H          H       0.97093   0.76726   0.34688   0.35265
H          H       0.23630   0.45346   0.79818   0.35150
H          H       0.14021   0.51983   0.46652   0.13514
H          H       0.22628   0.93673   0.57707   0.14080
H          H       0.64528   0.66657   0.14079   0.14297
C          C       0.77932   0.81611   0.61173  -0.11907
C          C       0.75777   0.90323   0.57999   0.27245
C          C       0.66097   0.87981   0.49078  -0.19768
C          C       0.58584   0.76973   0.43101  -0.15891
C          C       0.61310   0.68184   0.46167   0.27917
C          C       0.70850   0.70606   0.55151  -0.20240
C          C       0.87115   0.83739   0.70938   0.65424
C          C       0.47269   0.74726   0.33843   0.60499
C          C       0.99086   0.39188   0.00182  -0.13895
C          C       0.90694   0.40676   0.92133   0.30139
C          C       0.08250   0.48608   0.07903  -0.20686
C          C       0.97331   0.28251   0.01151   0.65007
C          C       0.71933   0.20458   0.38787  -0.11914
C          C       0.74108   0.32339   0.41955   0.27241
C          C       0.83738   0.38893   0.50889  -0.19721
C          C       0.91267   0.33865   0.56876  -0.15833
C          C       0.88625   0.22015   0.53801   0.27908
C          C       0.79034   0.15480   0.44825  -0.20374
C          C       0.62843   0.12853   0.28996   0.65560
C          C       0.02434   0.40919   0.66172   0.60425
C          C       0.50982   0.39016  -0.00168  -0.13817
C          C       0.59338   0.48548   0.07882   0.30148
C          C       0.41791   0.40721   0.92109  -0.20726
C          C       0.52699   0.27094   0.98815   0.64841
C          C       0.22068   0.18389   0.38828  -0.11893
C          C       0.24223   0.09677   0.42001   0.27243
C          C       0.33902   0.12018   0.50922  -0.19766
C          C       0.41416   0.23026   0.56899  -0.15863
C          C       0.38690   0.31816   0.53834   0.27902
C          C       0.29150   0.29394   0.44850  -0.20249
C          C       0.12885   0.16260   0.29062   0.65419
C          C       0.52731   0.25274   0.66157   0.60487
C          C       0.00914   0.60812  -0.00181  -0.13906
C          C       0.09305   0.59324   0.07867   0.30138
C          C       0.91750   0.51392   0.92097  -0.20689
C          C       0.02669   0.71749   0.98850   0.65029
C          C       0.28067   0.79542   0.61214  -0.11905
C          C       0.25891   0.67661   0.58046   0.27238
C          C       0.16262   0.61107   0.49111  -0.19719
C          C       0.08733   0.66135   0.43124  -0.15828
C          C       0.11374   0.77985   0.46199   0.27915
C          C       0.20966   0.84520   0.55175  -0.20373
C          C       0.37156   0.87147   0.71005   0.65563
C          C       0.97566   0.59081   0.33829   0.60434
C          C       0.49018   0.60984   0.00168  -0.13824
C          C       0.40662   0.51452   0.92119   0.30146
C          C       0.58209   0.59279   0.07891  -0.20725
C          C       0.47301   0.72906   0.01186   0.64851
O          O       0.85775   0.93110   0.77705  -0.62329
O          O       0.95560   0.75632   0.71877  -0.63754
O          O       0.40078   0.64556   0.28726  -0.52906
O          O       0.44765   0.82872   0.31376  -0.64051
O          O       0.83165   0.01122   0.64083  -0.53355
O          O       0.54337   0.57336   0.40501  -0.45384
O          O       0.92895   0.19003   0.93891  -0.63650
O          O      -0.00044   0.28708   0.09467  -0.63866
O          O       0.81174   0.31768   0.84465  -0.54855
O          O       0.64220   0.15588   0.22290  -0.62259
O          O       0.54462   0.03736   0.27935  -0.63924
O          O       0.09887   0.35887   0.71262  -0.53112
O          O       0.04474   0.51559   0.68692  -0.63762
O          O       0.66871   0.37103   0.35868  -0.53451
O          O       0.95700   0.16801   0.59443  -0.45336
O          O       0.57178   0.25036   0.06044  -0.63524
O          O       0.50012   0.19306   0.90469  -0.64015
O          O       0.68834   0.47352   0.15590  -0.55137
O          O       0.14225   0.06890   0.22296  -0.62340
O          O       0.04440   0.24368   0.28124  -0.63758
O          O       0.59922   0.35444   0.71274  -0.52903
O          O       0.55235   0.17127   0.68624  -0.64040
O          O       0.16835   0.98878   0.35917  -0.53365
O          O       0.45662   0.42664   0.59500  -0.45390
O          O       0.07105   0.80997   0.06110  -0.63645
O          O       0.00044   0.71292   0.90534  -0.63892
O          O       0.18826   0.68232   0.15536  -0.54851
O          O       0.35780   0.84412   0.77710  -0.62238
O          O       0.45538   0.96264   0.72066  -0.63938
O          O       0.90113   0.64113   0.28739  -0.53133
O          O       0.95525   0.48441   0.31309  -0.63764
O          O       0.33129   0.62897   0.64133  -0.53446
O          O       0.04300   0.83199   0.40558  -0.45343
O          O       0.42822   0.74964   0.93956  -0.63551
O          O       0.49988   0.80694   0.09531  -0.64007
O          O       0.31165   0.52648   0.84411  -0.55147

