data_crystal

_audit_creation_method 'AiiDA-DDEC plugin'

_cell_length_a        10.23018
_cell_length_b        16.87222
_cell_length_c        19.96189

_cell_angle_alpha     89.91184
_cell_angle_beta     101.53818
_cell_angle_gamma     90.12725

_symmetry_space_group_name_Hall 'P 1'
_symmetry_space_group_name_H-M  'P 1'

loop_
_symmetry_equiv_pos_as_xyz
 'x,y,z'

loop_
_atom_site_label
_atom_site_type_symbol
_atom_site_fract_x
_atom_site_fract_y
_atom_site_fract_z
_atom_site_charge
Zn         Zn      0.49056   0.33938   0.38181   0.93315
Zn         Zn      0.70257   0.41849   0.47723   0.94202
Zn         Zn      0.50971   0.83957   0.61799   0.94259
Zn         Zn      0.29536   0.91837   0.52044   0.94629
H          H       0.58569   0.06267   0.71906   0.13220
H          H       0.70254   0.29933   0.66979   0.13644
H          H       0.90550   0.21571   0.71152   0.12636
H          H       0.19710   0.28447   0.88813   0.11981
H          H       0.03109   0.26623   0.96177   0.10930
H          H       0.37065   0.19815   0.87249   0.05432
H          H       0.43751   0.10063   0.87928   0.06781
H          H       0.35420   0.19159   0.99813   0.13922
H          H       0.25855   0.11606   0.94908   0.12758
H          H       0.41610   0.09303   0.00214   0.13714
H          H       0.50537   0.17102   0.79840   0.11619
H          H       0.77600   0.08033   0.96654   0.10699
H          H       0.79380   0.96851   0.04852   0.12243
H          H       0.90047   0.12990   0.21722   0.13063
H          H       0.89894   0.38569   0.11326   0.12294
H          H       0.97875   0.44842   0.02063   0.06289
H          H       0.81874   0.47298   0.03694   0.06027
H          H       0.73782   0.50767   0.91350   0.13692
H          H       0.88383   0.56379   0.94783   0.13261
H          H       0.89499   0.48046   0.89510   0.13670
H          H       0.14086   0.28017   0.21306   0.12881
H          H       0.04467   0.35455   0.40275   0.13638
H          H       0.72922   0.29029   0.23393   0.13187
H          H       0.41238   0.56238   0.28166   0.13278
H          H       0.29722   0.79975   0.32792   0.13561
H          H       0.09493   0.71540   0.28824   0.12800
H          H       0.80351   0.78447   0.11173   0.11961
H          H       0.96906   0.76611   0.03792   0.10904
H          H       0.62934   0.69814   0.12745   0.05445
H          H       0.56189   0.60061   0.12074   0.06806
H          H       0.64590   0.69171   0.00181   0.13920
H          H       0.74121   0.61624   0.05098   0.12869
H          H       0.58357   0.59309   0.99796   0.13715
H          H       0.49429   0.67049   0.20129   0.11707
H          H       0.22389   0.58039   0.03334   0.10678
H          H       0.20588   0.46879   0.95136   0.12222
H          H       0.09987   0.63056   0.78265   0.13350
H          H       0.10150   0.88598   0.88651   0.12278
H          H       0.02124   0.94807   0.97921   0.06215
H          H       0.18122   0.97316   0.96287   0.06029
H          H       0.26223   0.00749   0.08634   0.13688
H          H       0.11641   0.06351   0.05204   0.13295
H          H       0.10498   0.97992   0.10471   0.13609
H          H       0.85959   0.78057   0.78676   0.12810
H          H       0.95669   0.85419   0.59675   0.13534
H          H       0.27128   0.78978   0.76572   0.13181
C          C       0.60591   0.29096   0.53227   0.60428
C          C       0.59797   0.22988   0.58518  -0.07502
C          C       0.53374   0.15879   0.56861   0.02892
C          C       0.52838   0.09754   0.61321  -0.07373
C          C       0.58814   0.11052   0.68254  -0.10306
C          C       0.64875   0.18340   0.70395   0.06522
C          C       0.65541   0.24231   0.65486  -0.10492
C          C       0.46322   0.02058   0.59087   0.60514
C          C       0.69782   0.19724   0.77827   0.04068
C          C       0.83195   0.22038   0.80656   0.03137
C          C       0.93072   0.22820   0.76592  -0.21162
C          C       0.05895   0.25069   0.79558   0.13572
C          C       0.09577   0.26582   0.86647  -0.16759
C          C       0.00251   0.25635   0.90701  -0.10915
C          C       0.86863   0.23363   0.87919   0.04053
C          C       0.77420   0.22250   0.92222  -0.06171
C          C       0.64488   0.19794   0.89264   0.20779
C          C       0.42744   0.15496   0.90819   0.07899
C          C       0.36052   0.13787   0.96806  -0.41085
C          C       0.60778   0.18638   0.82116  -0.26856
C          C       0.81243   0.23589   0.99718  -0.07840
C          C       0.82416   0.17121   0.04410   0.04079
C          C       0.80159   0.09156   0.02119  -0.11633
C          C       0.81156   0.02910   0.06651  -0.16123
C          C       0.84653   0.04376   0.13763   0.13942
C          C       0.87198   0.11963   0.16252  -0.20827
C          C       0.86119   0.18486   0.11659   0.02807
C          C       0.88791   0.26404   0.14033   0.04517
C          C       0.87782   0.32592   0.09395  -0.27294
C          C       0.83903   0.31269   0.02274   0.20868
C          C       0.87166   0.45129   0.99774   0.07899
C          C       0.84513   0.50381   0.93470  -0.41407
C          C       0.92967   0.28327   0.21438   0.07191
C          C       0.06554   0.29204   0.24322  -0.12871
C          C       0.10663   0.31709   0.31106  -0.02265
C          C       0.01183   0.33377   0.35058  -0.09777
C          C       0.87620   0.32304   0.32287  -0.04401
C          C       0.83520   0.29738   0.25495  -0.13184
C          C       0.25075   0.32722   0.34145   0.55248
C          C       0.77498   0.34105   0.36481   0.59565
C          C       0.39126   0.79287   0.46535   0.60655
C          C       0.40071   0.73113   0.41353  -0.07800
C          C       0.46518   0.66034   0.43104   0.02573
C          C       0.47007   0.59850   0.38707  -0.06894
C          C       0.41060   0.61079   0.31759  -0.10527
C          C       0.35083   0.68349   0.29544   0.06291
C          C       0.34391   0.74291   0.34374  -0.10251
C          C       0.53414   0.52128   0.40939   0.60075
C          C       0.30197   0.69680   0.22118   0.04336
C          C       0.16805   0.72003   0.19302   0.02975
C          C       0.06961   0.72792   0.23381  -0.21265
C          C       0.94156   0.75056   0.20423   0.13736
C          C       0.90471   0.76572   0.13332  -0.16849
C          C      -0.00230   0.75621   0.09269  -0.10971
C          C       0.13143   0.73342   0.12044   0.04308
C          C       0.22590   0.72242   0.07749  -0.06501
C          C       0.35506   0.69772   0.10701   0.20980
C          C       0.57239   0.65496   0.09177   0.08001
C          C       0.63934   0.63796   0.03197  -0.41218
C          C       0.39202   0.68586   0.17842  -0.26994
C          C       0.18773   0.73600   0.00260  -0.07802
C          C       0.17600   0.67141   0.95574   0.04050
C          C       0.19839   0.59174   0.97868  -0.11516
C          C       0.18830   0.52940   0.93337  -0.16151
C          C       0.15345   0.54423   0.86225   0.14085
C          C       0.12820   0.62013   0.83735  -0.21211
C          C       0.13904   0.68521   0.88327   0.02836
C          C       0.11237   0.76439   0.85948   0.04700
C          C       0.12246   0.82619   0.90583  -0.27414
C          C       0.16113   0.81282   0.97705   0.20921
C          C       0.12833   0.95119   0.00209   0.08019
C          C       0.15491   0.00353   0.06513  -0.41387
C          C       0.07077   0.78346   0.78536   0.07039
C          C       0.93494   0.79218   0.75651  -0.12809
C          C       0.89373   0.81695   0.68856  -0.02452
C          C       0.98871   0.83352   0.64902  -0.09590
C          C       0.12430   0.82281   0.67671  -0.04573
C          C       0.16538   0.79722   0.74468  -0.12996
C          C       0.74953   0.82725   0.65845   0.55295
C          C       0.22478   0.84047   0.63407   0.60233
Cl         Cl      0.18067   0.25967   0.74581  -0.09108
Cl         Cl      0.85867   0.96355   0.19374  -0.10094
Cl         Cl      0.82012   0.75962   0.25410  -0.09107
Cl         Cl      0.14116   0.46421   0.80612  -0.10075
O          O       0.54600   0.27776   0.47133  -0.54032
O          O       0.67592   0.35338   0.55249  -0.53131
O          O       0.38285   0.01981   0.53197  -0.52228
O          O       0.48698   0.96093   0.63002  -0.55622
O          O       0.33812   0.30541   0.30642  -0.54525
O          O       0.28661   0.35684   0.40071  -0.53387
O          O       0.81816   0.38075   0.42052  -0.55026
O          O       0.65620   0.31760   0.34373  -0.52424
O          O       0.55859   0.18675   0.93604  -0.19681
O          O       0.82427   0.37270   0.97584  -0.19898
O          O       0.45398   0.78204   0.52612  -0.54602
O          O       0.31698   0.85339   0.44443  -0.53129
O          O       0.61660   0.52010   0.46767  -0.51881
O          O       0.50740   0.46172   0.37037  -0.55364
O          O       0.66215   0.80538   0.69357  -0.54691
O          O       0.71340   0.85715   0.59925  -0.53424
O          O       0.18176   0.88110   0.57894  -0.55475
O          O       0.34287   0.81552   0.65384  -0.52907
O          O       0.44149   0.68677   0.06376  -0.19803
O          O       0.17577   0.87267   0.02400  -0.19900

