data_crystal

_audit_creation_method 'AiiDA-DDEC plugin'

_cell_length_a         9.42892
_cell_length_b        14.79447
_cell_length_c        18.58796

_cell_angle_alpha     90.03957
_cell_angle_beta     93.09615
_cell_angle_gamma     89.64111

_symmetry_space_group_name_Hall 'P 1'
_symmetry_space_group_name_H-M  'P 1'

loop_
_symmetry_equiv_pos_as_xyz
 'x,y,z'

loop_
_atom_site_label
_atom_site_type_symbol
_atom_site_fract_x
_atom_site_fract_y
_atom_site_fract_z
_atom_site_charge
Zn         Zn      0.18849   0.99405   0.24177   0.77476
Zn         Zn      0.68829   0.50633   0.24200   0.77322
Zn         Zn      0.31171   0.49367   0.75800   0.77321
Zn         Zn      0.81152   0.00595   0.75823   0.77480
H          H       0.84564   0.62017   0.04658   0.13747
H          H       0.62688   0.20105   0.60128   0.28085
H          H       0.95922   0.68168   0.24729   0.15712
H          H       0.10767   0.71782   0.76619   0.15473
H          H       0.65535   0.12055   0.95646   0.13547
H          H       0.84461   0.29010   0.08337   0.28419
H          H       0.58019   0.40248   0.09161   0.13759
H          H       0.15436   0.37983   0.95342   0.13753
H          H       0.04078   0.31832   0.75271   0.15713
H          H       0.57258   0.60475   0.38659   0.14611
H          H       0.32375   0.11445   0.45482   0.13881
H          H       0.15539   0.70990   0.91663   0.28429
H          H       0.12394   0.29454   0.59882   0.28194
H          H       0.60501   0.78202   0.76756   0.15594
H          H       0.54443   0.17997   0.75536   0.15790
H          H       0.34985   0.21670   0.07782   0.28728
H          H       0.92328   0.10301   0.61163   0.14539
H          H       0.41982   0.59752   0.90839   0.13748
H          H       0.89234   0.28218   0.23381   0.15472
H          H       0.34466   0.87945   0.04354   0.13538
H          H       0.87607   0.70546   0.40118   0.28171
H          H       0.65016   0.78330   0.92218   0.28746
H          H       0.17596   0.61280   0.54614   0.13994
H          H       0.67625   0.88555   0.54518   0.13886
H          H       0.37312   0.79895   0.39872   0.28076
H          H       0.92482   0.90261   0.90919   0.14054
H          H       0.07518   0.09739   0.09081   0.14058
H          H       0.07672   0.89699   0.38837   0.14537
H          H       0.42743   0.39525   0.61341   0.14609
H          H       0.45558   0.82003   0.24464   0.15782
H          H       0.82404   0.38720   0.45386   0.13994
H          H       0.39500   0.21798   0.23243   0.15590
C          C       0.54369   0.37236   0.14024   0.05578
C          C       0.43144   0.01041   0.06506  -0.04047
C          C       0.56418   0.00734   0.57009  -0.04224
C          C       0.49342   0.75418   0.26291   0.05655
C          C       0.96092   0.87259   0.86031   0.05796
C          C       0.59901   0.93557   0.52493  -0.10574
C          C       0.91401   0.56811   0.02546  -0.10968
C          C       0.45631   0.62764   0.85976   0.05573
C          C       0.48113   0.92033   0.95937  -0.03672
C          C       0.05823   0.85763   0.33966   0.06032
C          C       0.96485   0.42711   0.54404  -0.03820
C          C       0.44722   0.27814   0.21421   0.06558
C          C       0.86249   0.47930   0.13550   0.54298
C          C       0.58214   0.84839   0.41099   0.48859
C          C       0.94177   0.14237   0.66034   0.06033
C          C       0.05558   0.77806   0.78517   0.06618
C          C       0.00343   0.25246   0.73489   0.05729
C          C       0.43583   0.99266   0.42991  -0.04229
C          C       0.03515   0.57289   0.45596  -0.03837
C          C       0.44541   0.35610   0.66226   0.06082
C          C       0.01911   0.41847   0.03902  -0.03805
C          C       0.56856   0.98959   0.93494  -0.04045
C          C       0.94429   0.66758   0.92079   0.49380
C          C       0.93259   0.48804   0.06514  -0.04148
C          C       0.13752   0.52070   0.86450   0.54279
C          C       0.36921   0.98782   0.35465   0.53790
C          C       0.08330   0.65059   0.41159   0.48853
C          C       0.93577   0.50811   0.42992  -0.03984
C          C       0.08600   0.43189   0.97454  -0.10970
C          C       0.13084   0.48702   0.64532   0.53775
C          C       0.03908   0.12741   0.13969   0.05808
C          C       0.94443   0.22194   0.21483   0.06610
C          C       0.50658   0.24582   0.73709   0.05652
C          C       0.35977   0.01890   0.13499   0.54178
C          C       0.90130   0.43632   0.47468  -0.10975
C          C       0.46449   0.07295   0.54448  -0.03734
C          C       0.98089   0.58153   0.96098  -0.03814
C          C       0.86916   0.51298   0.35468   0.53766
C          C       0.41786   0.15161   0.58901   0.48877
C          C       0.63079   0.01219   0.64535   0.53758
C          C       0.06741   0.51196   0.93486  -0.04126
C          C       0.64023   0.98110   0.86501   0.54185
C          C       0.91670   0.34941   0.58840   0.48846
C          C       0.51888   0.07967   0.04063  -0.03674
C          C      -0.00343   0.74754   0.26511   0.05719
C          C       0.55704   0.16251   0.08391   0.49397
C          C       0.09870   0.56368   0.52531  -0.10952
C          C       0.05572   0.33242   0.07921   0.49385
C          C       0.55279   0.72186   0.78579   0.06559
C          C       0.06424   0.49189   0.57008  -0.04001
C          C       0.40099   0.06443   0.47507  -0.10580
C          C       0.58680   0.06822   0.97621  -0.11248
C          C       0.44296   0.83749   0.91609   0.49398
C          C       0.41320   0.93178   0.02379  -0.11241
C          C       0.55459   0.64390   0.33774   0.06072
C          C       0.53551   0.92705   0.45552  -0.03731
N          N       0.00866   0.84767   0.74686  -0.18234
N          N       0.52370   0.70830   0.85703   0.18000
N          N       0.02807   0.79136   0.85670   0.18120
N          N       0.94790   0.26890   0.08667  -0.32981
N          N       0.99135   0.15233   0.25314  -0.18246
N          N       0.08007   0.88323   0.27313  -0.17638
N          N       0.95939   0.18572   0.77437  -0.18423
N          N       0.91994   0.11677   0.72687  -0.17640
N          N       0.53882   0.68713   0.22372  -0.18397
N          N       0.46118   0.31288   0.77628  -0.18410
N          N       0.97193   0.20864   0.14330   0.18114
N          N       0.52228   0.21661   0.60583  -0.33039
N          N       0.01877   0.28183   0.60409  -0.33132
N          N       0.05210   0.73110   0.91333  -0.32978
N          N       0.00508   0.77230   0.33702   0.17248
N          N       0.05212   0.09328   0.20542  -0.17907
N          N       0.54486   0.76833   0.91393  -0.33635
N          N       0.45514   0.23167   0.08606  -0.33617
N          N       0.99493   0.22770   0.66298   0.17253
N          N       0.04062   0.81428   0.22563  -0.18402
N          N       0.49327   0.34716   0.25318  -0.18099
N          N       0.57814   0.61807   0.27142  -0.17609
N          N       0.49936   0.27060   0.66509   0.17343
N          N       0.94789   0.90672   0.79458  -0.17912
N          N       0.55502   0.40608   0.20613  -0.17896
N          N       0.47772   0.78340   0.39417  -0.33045
N          N       0.44498   0.59392   0.79387  -0.17898
N          N       0.47630   0.29170   0.14297   0.17988
N          N       0.42187   0.38194   0.72858  -0.17613
N          N       0.50064   0.72940   0.33491   0.17341
N          N       0.98124   0.71817   0.39591  -0.33136
N          N       0.50673   0.65284   0.74681  -0.18086
O          O       0.10702   0.58676   0.82430  -0.55731
O          O       0.27137   0.95567   0.14926  -0.53344
O          O       0.70641   0.83615   0.39651  -0.46668
O          O       0.29359   0.16385   0.60349  -0.46695
O          O       0.89299   0.41324   0.17570  -0.55732
O          O       0.82052   0.68628   0.90197  -0.47250
O          O       0.22942   0.45872   0.85085  -0.53324
O          O       0.25605   0.03597   0.34152  -0.53321
O          O       0.61435   0.91381   0.82542  -0.55457
O          O       0.38566   0.08619   0.17458  -0.55450
O          O       0.07834   0.43598   0.69063  -0.54920
O          O       0.42234   0.93652   0.30936  -0.54981
O          O       0.77059   0.54128   0.14915  -0.53342
O          O       0.92166   0.56402   0.30936  -0.54900
O          O       0.74395   0.96403   0.65848  -0.53301
O          O       0.75694   0.46465   0.34150  -0.53272
O          O       0.72863   0.04433   0.85074  -0.53344
O          O       0.79255   0.34041   0.60377  -0.46538
O          O       0.57767   0.06349   0.69064  -0.54977
O          O       0.20745   0.65959   0.39623  -0.46512
O          O       0.17948   0.31372   0.09803  -0.47238
O          O       0.32117   0.82656   0.89082  -0.47208
O          O       0.67884   0.17344   0.10918  -0.47196
O          O       0.24307   0.53535   0.65850  -0.53257

