data_crystal

_audit_creation_method 'AiiDA-DDEC plugin'

_cell_length_a         7.00974
_cell_length_b        15.61626
_cell_length_c        15.60879

_cell_angle_alpha     87.13458
_cell_angle_beta     77.05385
_cell_angle_gamma     77.04266

_symmetry_space_group_name_Hall 'P 1'
_symmetry_space_group_name_H-M  'P 1'

loop_
_symmetry_equiv_pos_as_xyz
 'x,y,z'

loop_
_atom_site_label
_atom_site_type_symbol
_atom_site_fract_x
_atom_site_fract_y
_atom_site_fract_z
_atom_site_charge
Zn         Zn      0.13650   0.23861   0.73793   0.73834
Zn         Zn      0.11174   0.76211   0.26218   0.73982
Zn         Zn      0.62518   0.26198   0.23909   0.73885
Zn         Zn      0.12703   0.73779   0.76152   0.73894
H          H       0.26852   0.25834   0.16047   0.10064
H          H       0.19554   0.25442   0.00934   0.12778
H          H       0.48057   0.24746   0.87808   0.12520
H          H       0.87014   0.25189   0.05473   0.09616
H          H       0.68844   0.74135   0.83895   0.10112
H          H       0.45964   0.74576   0.99013   0.12730
H          H       0.60635   0.75286   0.12142   0.12463
H          H       0.17718   0.74749   0.94525   0.09527
H          H       0.47337   0.83947   0.25864   0.10052
H          H       0.55109   0.99046   0.25439   0.12883
H          H       0.27314   0.12182   0.24715   0.12452
H          H       0.87833   0.94563   0.25227   0.09648
H          H       0.57099   0.16084   0.74167   0.10063
H          H       0.79499   0.00964   0.74563   0.12927
H          H       0.64079   0.87862   0.75271   0.12417
H          H       0.07511   0.05505   0.74824   0.09536
H          H       0.98233   0.34028   0.24139   0.10018
H          H       0.05516   0.49122   0.24535   0.12739
H          H       0.77098   0.62237   0.25299   0.12504
H          H       0.38028   0.44608   0.24852   0.09593
H          H       0.56355   0.66031   0.75872   0.10066
H          H       0.79276   0.50967   0.75462   0.12717
H          H       0.64881   0.37802   0.74688   0.12472
H          H       0.07634   0.55293   0.75197   0.09511
H          H       0.77725   0.24129   0.66021   0.10119
H          H       0.69788   0.24529   0.50957   0.12784
H          H       0.97429   0.25307   0.37755   0.12531
H          H       0.37159   0.24812   0.55269   0.09525
H          H       0.67910   0.75858   0.33975   0.10027
H          H       0.45371   0.75466   0.49066   0.12759
H          H       0.60661   0.74700   0.62229   0.12529
H          H       0.17349   0.75151   0.44686   0.09697
C          C       0.38514   0.25642   0.10105   0.08476
C          C       0.34641   0.25357   0.01778  -0.11659
C          C       0.50419   0.24927   0.94449  -0.03218
C          C       0.69690   0.24804   0.95727  -0.07336
C          C       0.72244   0.25233   0.04288   0.07247
C          C       0.87437   0.24266   0.88232   0.55736
C          C       0.74320   0.74329   0.89855   0.08378
C          C       0.61817   0.74646   0.98174  -0.11551
C          C       0.69837   0.75082   0.05510  -0.03291
C          C       0.90267   0.75181   0.04266  -0.07206
C          C       0.01809   0.74719   0.95710   0.07152
C          C       0.00014   0.75733   0.11760   0.55497
C          C       0.35901   0.89898   0.25664   0.08589
C          C       0.40095   0.98215   0.25360  -0.12000
C          C       0.24763   0.05545   0.24916  -0.02910
C          C       0.05599   0.04283   0.24804  -0.07377
C          C       0.02576   0.95737   0.25257   0.07166
C          C       0.88407   0.11780   0.24255   0.55554
C          C       0.51394   0.10136   0.74350   0.08666
C          C       0.63569   0.01814   0.74639  -0.12039
C          C       0.55075   0.94492   0.75090  -0.02851
C          C       0.34508   0.95744   0.75260  -0.07298
C          C       0.23458   0.04302   0.74784   0.07327
C          C       0.24161   0.88251   0.75926   0.55494
C          C       0.86549   0.39966   0.24338   0.08392
C          C       0.90422   0.48286   0.24635  -0.11611
C          C       0.74643   0.55617   0.25113  -0.03165
C          C       0.55316   0.54384   0.25285  -0.07341
C          C       0.52777   0.45821   0.24800   0.07329
C          C       0.37588   0.61926   0.25932   0.55980
C          C       0.50897   0.60068   0.75677   0.08433
C          C       0.63451   0.51765   0.75366  -0.11684
C          C       0.55556   0.44408   0.74880  -0.03000
C          C       0.35159   0.45614   0.74722  -0.07288
C          C       0.23532   0.54157   0.75227   0.07370
C          C       0.25535   0.38097   0.74074   0.55596
C          C       0.89117   0.24321   0.60050   0.08347
C          C       0.84822   0.24628   0.51746  -0.11687
C          C       0.00051   0.25118   0.44386  -0.03126
C          C       0.19217   0.25287   0.45606  -0.07240
C          C       0.22377   0.24779   0.54143   0.07451
C          C       0.36262   0.25942   0.38071   0.55457
C          C       0.73549   0.75662   0.39945   0.08523
C          C       0.61303   0.75359   0.48252  -0.11645
C          C       0.69711   0.74879   0.55604  -0.03264
C          C       0.90262   0.74710   0.54389  -0.07151
C          C       0.01403   0.75202   0.45844   0.07196
C          C       0.00446   0.74080   0.61927   0.55566
N          N       0.57039   0.25651   0.11353  -0.22444
N          N       0.94101   0.74289   0.88641  -0.22120
N          N       0.17347   0.88672   0.25683  -0.22293
N          N       0.31636   0.11361   0.74331  -0.22430
N          N       0.68001   0.38749   0.24331  -0.22317
N          N       0.31131   0.61251   0.75698  -0.22274
N          N       0.07703   0.24299   0.61239  -0.22348
N          N       0.93299   0.75681   0.38757  -0.22303
O          O       0.84926   0.22955   0.80483  -0.55261
O          O       0.03952   0.25094   0.89605  -0.53682
O          O       0.88476   0.77066   0.19514  -0.55125
O          O       0.18727   0.74906   0.10386  -0.53536
O          O       0.92251   0.19517   0.22935  -0.55121
O          O       0.71056   0.10412   0.25087  -0.53620
O          O       0.34534   0.80482   0.77057  -0.55096
O          O       0.06091   0.89633   0.75362  -0.53634
O          O       0.40076   0.69667   0.27264  -0.55442
O          O       0.20991   0.60590   0.25148  -0.53866
O          O       0.37090   0.30357   0.72739  -0.55182
O          O       0.06813   0.39436   0.74857  -0.53539
O          O       0.32417   0.27260   0.30336  -0.55115
O          O       0.53650   0.25171   0.39401  -0.53445
O          O       0.90269   0.72733   0.69665  -0.55124
O          O       0.18357   0.74893   0.60594  -0.53643

