data_crystal

_audit_creation_method 'AiiDA-DDEC plugin'

_cell_length_a        11.02613
_cell_length_b        12.21658
_cell_length_c        19.54818

_cell_angle_alpha     91.84670
_cell_angle_beta     90.01152
_cell_angle_gamma     116.74650

_symmetry_space_group_name_Hall 'P 1'
_symmetry_space_group_name_H-M  'P 1'

loop_
_symmetry_equiv_pos_as_xyz
 'x,y,z'

loop_
_atom_site_label
_atom_site_type_symbol
_atom_site_fract_x
_atom_site_fract_y
_atom_site_fract_z
_atom_site_charge
Cu         Cu      0.55849   0.39203   0.80613   0.90509
Cu         Cu      0.97100   0.96280   0.55830   0.90010
Cu         Cu      0.64253   0.25183   0.84890   0.91739
Cu         Cu      0.16752   0.60837   0.19397   0.90369
Cu         Cu      0.00818   0.03727   0.44164   0.90109
Cu         Cu      0.39064   0.74799   0.15100   0.91518
H          H       0.94477   0.72197   0.82222   0.12704
H          H       0.79550   0.17984   0.65704   0.14046
H          H       0.79906   0.52731   0.61955   0.13309
H          H       0.19702   0.05983   0.73500   0.10311
H          H       0.94823   0.51777   0.99706   0.13954
H          H       0.25926   0.88893   0.97732   0.13253
H          H       0.08596   0.71678   0.39508   0.10932
H          H       0.98713   0.37429   0.47747   0.13256
H          H       0.23505   0.94392   0.64480   0.10173
H          H       0.40766   0.04935   0.66096   0.10383
H          H       0.13307   0.74769   0.73584   0.07553
H          H       0.25208   0.76651   0.80237   0.09778
H          H       0.21021   0.56996   0.51970   0.08671
H          H       0.15192   0.62814   0.58989   0.09003
H          H       0.29738   0.83709   0.56482   0.08859
H          H       0.40162   0.77091   0.53222   0.10466
H          H       0.31579   0.76190   0.41581   0.09540
H          H       0.32630   0.90379   0.44792   0.10365
H          H       0.33899   0.80674   0.67000   0.09969
H          H       0.44103   0.90928   0.73704   0.11171
H          H       0.22295   0.27791   0.17749   0.12684
H          H       0.61603   0.82043   0.34287   0.14042
H          H       0.27259   0.47365   0.38060   0.13269
H          H       0.13718   0.94119   0.26537   0.10328
H          H       0.43042   0.48196   0.00298   0.13980
H          H       0.37049   0.11043   0.02248   0.13278
H          H       0.36869   0.28281   0.60486   0.10952
H          H       0.61305   0.62593   0.52283   0.13258
H          H       0.29152   0.05643   0.35539   0.10121
H          H       0.35824   0.95051   0.33901   0.10357
H          H       0.38522   0.25257   0.26403   0.07551
H          H       0.48492   0.23309   0.19748   0.09796
H          H       0.63984   0.42966   0.48063   0.08631
H          H       0.52371   0.37180   0.41028   0.09029
H          H       0.46058   0.16258   0.43513   0.08893
H          H       0.63046   0.22832   0.46794   0.10538
H          H       0.55351   0.23757   0.58426   0.09541
H          H       0.42289   0.09571   0.55206   0.10389
H          H       0.53178   0.19298   0.33001   0.09948
H          H       0.53107   0.09003   0.26299   0.11138
C          C       0.71938   0.34531   0.71200   0.57768
C          C       0.99228   0.71764   0.87019  -0.12531
C          C       0.17332   0.69612   0.06025   0.59413
C          C       0.93392   0.60963   0.90678  -0.02076
C          C       0.17484   0.93323   0.85577   0.40483
C          C       0.91666   0.16120   0.53936   0.58845
C          C       0.07154   0.84146   0.46896   0.58544
C          C       0.11067   0.81762   0.89494  -0.01126
C          C       0.80975   0.50331   0.87829   0.58693
C          C       0.82329   0.25887   0.62539  -0.09706
C          C       0.79188   0.35388   0.64603  -0.02544
C          C       0.82687   0.45510   0.60451  -0.11346
C          C       0.89980   0.46410   0.54452  -0.01095
C          C       0.10933   0.70318   0.99426  -0.01382
C          C       0.39451   0.13513   0.78018   0.58604
C          C       0.27151   0.02653   0.74719  -0.00817
C          C       0.93938   0.57252   0.49991   0.40641
C          C       0.99276   0.60175   0.96875  -0.09633
C          C       0.16835   0.81087   0.95735  -0.09019
C          C       0.12196   0.74782   0.44780  -0.00759
C          C       0.93062   0.36889   0.52392  -0.09934
C          C       0.31717   0.97725   0.68346  -0.19044
C          C       0.22786   0.81351   0.76174  -0.05957
C          C       0.88867   0.26464   0.56332  -0.02111
C          C       0.18481   0.64364   0.53662  -0.06523
C          C       0.30269   0.77123   0.52699  -0.17044
C          C       0.27822   0.80462   0.45500  -0.18462
C          C       0.34212   0.87228   0.71046  -0.17968
C          C       0.37508   0.65510   0.28795   0.57634
C          C       0.27463   0.28198   0.12954  -0.12478
C          C       0.47744   0.30357   0.93980   0.59456
C          C       0.32426   0.39003   0.09302  -0.02169
C          C       0.24170   0.06643   0.14429   0.40466
C          C       0.75587   0.83887   0.46069   0.58830
C          C       0.22994   0.15871   0.53090   0.58486
C          C       0.29296   0.18181   0.10485  -0.01059
C          C       0.30706   0.49671   0.12164   0.58672
C          C       0.56508   0.74161   0.37469  -0.09609
C          C       0.43880   0.64676   0.35405  -0.02703
C          C       0.37252   0.54572   0.39563  -0.11232
C          C       0.43632   0.53655   0.45563  -0.01226
C          C       0.40620   0.29632   0.00567  -0.01394
C          C       0.25875   0.86478   0.21991   0.58589
C          C       0.24468   0.97366   0.25299  -0.00812
C          C       0.36693   0.42792   0.49999   0.40706
C          C       0.39102   0.39783   0.03113  -0.09640
C          C       0.35747   0.18848   0.04248  -0.09020
C          C       0.37386   0.25192   0.55213  -0.00822
C          C       0.56220   0.63155   0.47631  -0.09934
C          C       0.33981   0.02277   0.31662  -0.19012
C          C       0.41409   0.18647   0.23827  -0.06019
C          C       0.62449   0.73573   0.43684  -0.02023
C          C       0.54098   0.35613   0.46353  -0.06396
C          C       0.53137   0.22841   0.47307  -0.17172
C          C       0.47337   0.19493   0.54502  -0.18453
C          C       0.46951   0.12752   0.28953  -0.17849
N          N       0.21259   0.91987   0.79059  -0.12452
N          N       0.07493   0.64417   0.49304  -0.12320
N          N       0.29245   0.08028   0.20957  -0.12488
N          N       0.43051   0.35579   0.50703  -0.12441
O          O       0.72973   0.52830   0.84165  -0.54098
O          O       0.89739   0.07795   0.58224  -0.53434
O          O       0.40107   0.24072   0.77149  -0.54384
O          O       0.06026   0.90411   0.42058  -0.53947
O          O       0.30126   0.76444   0.06716  -0.52756
O          O       0.48435   0.11152   0.80824  -0.53461
O          O       0.95694   0.16372   0.47781  -0.54103
O          O       0.05236   0.85386   0.53256  -0.53982
O          O       0.64811   0.40388   0.71683  -0.53565
O          O       0.09578   0.62133   0.10390  -0.53537
O          O       0.73444   0.27990   0.75777  -0.54944
O          O       0.79435   0.39612   0.89197  -0.53703
O          O       0.19121   0.03388   0.88034  -0.45789
O          O       0.85244   0.59254   0.46964  -0.47536
O          O       0.20194   0.47203   0.15813  -0.54164
O          O       0.81964   0.92194   0.41774  -0.53418
O          O       0.16016   0.75916   0.22877  -0.54231
O          O       0.15630   0.09597   0.57928  -0.53922
O          O       0.53624   0.23454   0.93266  -0.52673
O          O       0.37191   0.88826   0.19163  -0.53521
O          O       0.79370   0.83627   0.52223  -0.54076
O          O       0.19829   0.14703   0.46733  -0.53905
O          O       0.24533   0.59661   0.28317  -0.53406
O          O       0.47555   0.37926   0.89644  -0.53721
O          O       0.45552   0.72016   0.24213  -0.54842
O          O       0.39949   0.60368   0.10820  -0.53493
O          O       0.15774   0.96557   0.12008  -0.45713
O          O       0.25965   0.40833   0.52959  -0.47379

