data_crystal

_audit_creation_method 'AiiDA-DDEC plugin'

_cell_length_a         9.77356
_cell_length_b        10.99543
_cell_length_c        16.28861

_cell_angle_alpha     89.66875
_cell_angle_beta     90.23409
_cell_angle_gamma     89.72655

_symmetry_space_group_name_Hall 'P 1'
_symmetry_space_group_name_H-M  'P 1'

loop_
_symmetry_equiv_pos_as_xyz
 'x,y,z'

loop_
_atom_site_label
_atom_site_type_symbol
_atom_site_fract_x
_atom_site_fract_y
_atom_site_fract_z
_atom_site_charge
Y          Y       0.79001   0.50019  -0.00036   1.90284
Y          Y       0.28981   0.00211   0.49805   1.90667
Y          Y       0.20998   0.49982   0.00036   1.90285
Y          Y       0.71019  -0.00211   0.50195   1.90676
H          H       0.21092   0.36253   0.76819   0.11445
H          H       0.21984   0.23688   0.64070   0.11076
H          H       0.78577   0.28293   0.60868   0.11369
H          H       0.77752   0.41140   0.73536   0.12232
H          H       0.22396   0.09707   0.03037   0.12330
H          H       0.79095   0.12936   0.98798   0.12119
H          H       0.70804   0.13815   0.73168   0.11467
H          H       0.71829   0.26411   0.85869   0.11122
H          H       0.28560   0.21642   0.89263   0.11214
H          H       0.27586   0.08904   0.76589   0.12249
H          H       0.72326   0.39963   0.47121   0.12397
H          H       0.29057   0.37320   0.51306   0.12130
H          H       0.78907   0.63748   0.23181   0.11446
H          H       0.78015   0.76313   0.35930   0.11081
H          H       0.21423   0.71707   0.39132   0.11365
H          H       0.22248   0.58860   0.26463   0.12219
H          H       0.77604   0.90294   0.96963   0.12333
H          H       0.20904   0.87064   0.01202   0.12112
H          H       0.29195   0.86186   0.26832   0.11478
H          H       0.28170   0.73590   0.14131   0.11131
H          H       0.71440   0.78358   0.10737   0.11206
H          H       0.72413   0.91097   0.23411   0.12248
H          H       0.27673   0.60038   0.52878   0.12409
H          H       0.70942   0.62681   0.48694   0.12132
C          C       0.99328   0.39164   0.76049  -0.04554
C          C       0.11886   0.34588   0.73247  -0.08866
C          C       0.12371   0.27567   0.66176  -0.09754
C          C       0.00252   0.24926   0.61905  -0.04577
C          C       0.87804   0.30117   0.64407  -0.09937
C          C       0.87358   0.37275   0.71421  -0.08669
C          C       0.98512   0.44960   0.84287   0.64564
C          C       0.00575   0.16075   0.54971   0.66048
C          C       0.00827   0.12612   0.01035  -0.03726
C          C       0.12664   0.05361   0.01709  -0.09539
C          C       0.88151   0.07181   0.99317  -0.09562
C          C       0.01718   0.26116   0.01855   0.63207
C          C       0.49088   0.10842   0.73989  -0.04340
C          C       0.61638   0.15488   0.76752  -0.08897
C          C       0.62194   0.22534   0.83817  -0.09680
C          C       0.50171   0.25112   0.88187  -0.04692
C          C       0.37746   0.19889   0.85696  -0.09806
C          C       0.37215   0.12758   0.78659  -0.08839
C          C       0.48277   0.04879   0.65783   0.64509
C          C       0.50580   0.33776   0.95265   0.65706
C          C       0.50770   0.37374   0.49133  -0.03800
C          C       0.62638   0.44464   0.48390  -0.09560
C          C       0.38120   0.42968   0.50743  -0.09381
C          C       0.51725   0.23858   0.48469   0.63650
C          C       0.00672   0.60836   0.23951  -0.04559
C          C       0.88114   0.65413   0.26752  -0.08876
C          C       0.87628   0.72434   0.33824  -0.09754
C          C      -0.00251   0.75075   0.38094  -0.04580
C          C       0.12195   0.69884   0.35593  -0.09926
C          C       0.12641   0.62726   0.28579  -0.08668
C          C       0.01483   0.55041   0.15712   0.64559
C          C       0.99418   0.83925   0.45029   0.66056
C          C       0.99173   0.87389   0.98965  -0.03740
C          C       0.87335   0.94639   0.98291  -0.09538
C          C       0.11849   0.92820   0.00683  -0.09558
C          C       0.98276   0.73885   0.98145   0.63213
C          C       0.50911   0.89159   0.26011  -0.04358
C          C       0.38361   0.84513   0.23248  -0.08871
C          C       0.37806   0.77467   0.16183  -0.09671
C          C       0.49828   0.74888   0.11813  -0.04703
C          C       0.62254   0.80112   0.14304  -0.09813
C          C       0.62784   0.87243   0.21341  -0.08845
C          C       0.51728   0.95121   0.34217   0.64529
C          C       0.49426   0.66224   0.04735   0.65740
C          C       0.49229   0.62627   0.50867  -0.03764
C          C       0.37362   0.55537   0.51610  -0.09556
C          C       0.61880   0.57033   0.49256  -0.09401
C          C       0.48280   0.76142   0.51531   0.63587
O          O       0.86630   0.47423   0.87064  -0.62155
O          O       0.09654   0.46584   0.88295  -0.65737
O          O       0.89397   0.11101   0.52874  -0.64484
O          O       0.12102   0.13944   0.51628  -0.64273
O          O       0.90655   0.32249   0.01217  -0.65891
O          O       0.13495   0.30804   0.02912  -0.63115
O          O       0.36422   0.02406   0.62915  -0.62531
O          O       0.59445   0.03083   0.61897  -0.65492
O          O       0.39335   0.38140   0.97854  -0.64353
O          O       0.62233   0.36331   0.98316  -0.64175
O          O       0.40697   0.17707   0.48790  -0.66136
O          O       0.63620   0.19184   0.47838  -0.63273
O          O       0.13372   0.52577   0.12935  -0.62203
O          O       0.90348   0.53417   0.11706  -0.65682
O          O       0.10606   0.88901   0.47127  -0.64556
O          O       0.87900   0.86056   0.48371  -0.64216
O          O       0.09348   0.67750   0.98783  -0.65961
O          O       0.86508   0.69198   0.97088  -0.63041
O          O       0.63575   0.97595   0.37084  -0.62513
O          O       0.40552   0.96918   0.38104  -0.65521
O          O       0.60661   0.61862   0.02147  -0.64332
O          O       0.37764   0.63668   0.01683  -0.64223
O          O       0.59299   0.82292   0.51210  -0.66078
O          O       0.36377   0.80818   0.52162  -0.63286

