data_crystal

_audit_creation_method 'AiiDA-DDEC plugin'

_cell_length_a        10.55908
_cell_length_b        13.43169
_cell_length_c        18.50561

_cell_angle_alpha     89.95275
_cell_angle_beta     96.53195
_cell_angle_gamma     89.96380

_symmetry_space_group_name_Hall 'P 1'
_symmetry_space_group_name_H-M  'P 1'

loop_
_symmetry_equiv_pos_as_xyz
 'x,y,z'

loop_
_atom_site_label
_atom_site_type_symbol
_atom_site_fract_x
_atom_site_fract_y
_atom_site_fract_z
_atom_site_charge
Ni         Ni      0.41510   0.27888   0.52554   1.16084
Ni         Ni      0.58615   0.78001   0.97284   1.16243
Ni         Ni      0.58771   0.71794   0.47452   1.16043
Ni         Ni      0.41599   0.21861   0.02718   1.16318
Ni         Ni      0.50212  -0.00080   0.00018   1.10697
Ni         Ni      0.50250   0.49779   0.49986   1.10858
H          H       0.37675   0.20693   0.23304   0.13479
H          H       0.55258   0.91730   0.22407   0.14253
H          H       0.48207   0.04277   0.43125   0.13839
H          H       0.09066   0.91192   0.98089   0.14329
H          H       0.88011   0.63804   0.93988   0.13479
H          H       0.28974   0.63863   0.94510   0.13228
H          H       0.62507   0.70923   0.26671   0.13423
H          H       0.44778   0.42029   0.27645   0.14359
H          H       0.52124   0.54377   0.06911   0.13857
H          H       0.90886   0.40724   0.51511   0.14313
H          H       0.12406   0.13592   0.55850   0.13431
H          H       0.71452   0.13302   0.55443   0.13316
H          H       0.62581   0.79056   0.76681   0.13580
H          H       0.44752   0.07936   0.77551   0.14269
H          H       0.52060   0.95477   0.56856   0.13793
H          H       0.91102   0.08801   0.01893   0.14448
H          H       0.12265   0.36132   0.06027   0.13407
H          H       0.71303   0.36182   0.05489   0.13390
H          H       0.37759   0.28925   0.73408   0.13542
H          H       0.55327   0.57849   0.72240   0.14252
H          H       0.48175   0.45718   0.93067   0.13836
H          H       0.09258   0.58870   0.48500   0.14472
H          H       0.88085   0.86171   0.44119   0.13419
H          H       0.29044   0.86126   0.44571   0.13237
C          C       0.42355   0.13215   0.33616  -0.01277
C          C       0.41536   0.13992   0.26042  -0.07930
C          C       0.45971   0.06119   0.22052  -0.01802
C          C       0.51451   0.97647   0.25553  -0.07971
C          C       0.52208   0.97003   0.33154  -0.01730
C          C       0.47565   0.04699   0.37228  -0.08573
C          C       0.39195   0.22165   0.37948   0.54968
C          C       0.45820   0.07193   0.14019   0.59004
C          C       0.58923   0.88040   0.36782   0.55443
C          C       0.20219   0.78022   0.96392  -0.01684
C          C       0.08830   0.83230   0.96923  -0.06880
C          C       0.97257   0.78010   0.96089  -0.01908
C          C       0.97036   0.67768   0.94599  -0.05811
C          C       0.08442   0.62726   0.93987  -0.04903
C          C       0.20057   0.67777   0.94920  -0.06840
C          C       0.32962   0.82848   0.97635   0.57864
C          C       0.84798   0.83178   0.96760   0.55259
C          C       0.08371   0.51937   0.92713   0.49119
C          C       0.57883   0.63393   0.16373  -0.01353
C          C       0.58619   0.64224   0.23952  -0.08032
C          C       0.54115   0.56387   0.27974  -0.01556
C          C       0.48632   0.47914   0.24488  -0.08325
C          C       0.47984   0.47209   0.16894  -0.01523
C          C       0.52695   0.54857   0.12802  -0.08513
C          C       0.61126   0.72257   0.11944   0.55116
C          C       0.54290   0.57382   0.36028   0.58935
C          C       0.41342   0.38240   0.13252   0.55457
C          C       0.79985   0.27498   0.53368  -0.01929
C          C       0.91269   0.32774   0.52725  -0.06739
C          C       0.02911   0.27660   0.53552  -0.01883
C          C       0.03307   0.17459   0.55206  -0.05671
C          C       0.92003   0.12337   0.55943  -0.05090
C          C       0.80296   0.17279   0.54959  -0.06843
C          C       0.67265   0.32377   0.52174   0.57756
C          C       0.15249   0.32895   0.52736   0.55178
C          C       0.92379   0.01611   0.57520   0.48971
C          C       0.57914   0.86538   0.66366  -0.01208
C          C       0.58672   0.85745   0.73943  -0.08273
C          C       0.54123   0.93582   0.77925  -0.01401
C          C       0.48599   0.02029   0.74417  -0.08224
C          C       0.47897   0.02688   0.66821  -0.01807
C          C       0.52644   0.95029   0.62750  -0.08416
C          C       0.61214   0.77590   0.62064   0.55423
C          C       0.54267   0.92544   0.85962   0.58723
C          C       0.41288   0.11694   0.63215   0.55939
C          C       0.80036   0.22009   0.03572  -0.01816
C          C       0.91406   0.16768   0.03042  -0.06750
C          C       0.02999   0.21948   0.03877  -0.01992
C          C       0.03234   0.32186   0.05401  -0.05750
C          C       0.91863   0.37257   0.06051  -0.05029
C          C       0.80211   0.32249   0.05072  -0.07008
C          C       0.67326   0.17124   0.02356   0.57824
C          C       0.15477   0.16797   0.03233   0.55174
C          C       0.92042   0.48029   0.07441   0.49198
C          C       0.42407   0.36567   0.83661  -0.01289
C          C       0.41620   0.35664   0.76083  -0.08179
C          C       0.46069   0.43457   0.72006  -0.01459
C          C       0.51531   0.51982   0.75437  -0.08327
C          C       0.52227   0.52783   0.83031  -0.01423
C          C       0.47568   0.45157   0.87177  -0.08707
C          C       0.39268   0.27648   0.88073   0.55392
C          C       0.45869   0.42338   0.63958   0.58965
C          C       0.58853   0.61834   0.86594   0.55543
C          C       0.20333   0.71997   0.46614  -0.01514
C          C       0.08976   0.66813   0.47259  -0.06955
C          C       0.97392   0.72028   0.46409  -0.01805
C          C       0.97129   0.82227   0.44767  -0.05769
C          C       0.08500   0.87255   0.44065  -0.04970
C          C       0.20142   0.82220   0.45036  -0.06737
C          C       0.33067   0.67118   0.47826   0.57812
C          C       0.84952   0.66964   0.47233   0.54988
C          C       0.08303   0.98033   0.42712   0.49093
O          O       0.36281   0.19806   0.44402  -0.43108
O          O       0.40059   0.30617   0.35350  -0.34933
O          O       0.46945   0.16314   0.12003  -0.48547
O          O       0.45093   0.99469   0.10114  -0.44491
O          O       0.68101   0.84764   0.33813  -0.35365
O          O       0.54365   0.84860   0.42555  -0.46149
O          O       0.41901   0.76667  -0.00002  -0.46972
O          O       0.34266   0.91969   0.96364  -0.44754
O          O       0.84252   0.91847   0.98945  -0.36348
O          O       0.75124   0.77302   0.94574  -0.46129
O          O       0.98603   0.46950   0.90201  -0.27176
O          O       0.18168   0.46438   0.94156  -0.27116
O          O       0.60949   0.89492   0.02194  -0.47928
O          O       0.63724   0.69809   0.05442  -0.43473
O          O       0.60564   0.80750   0.14511  -0.34729
O          O       0.53162   0.66461   0.38132  -0.48476
O          O       0.55064   0.49586   0.39894  -0.44559
O          O       0.31887   0.35135   0.16048  -0.34859
O          O       0.46217   0.34860   0.07643  -0.46240
O          O       0.58224   0.26264   0.49864  -0.46852
O          O       0.66184   0.41523   0.53450  -0.45163
O          O       0.15659   0.41371   0.50161  -0.36009
O          O       0.25012   0.27295   0.55262  -0.45997
O          O       0.02519   0.96767   0.59617  -0.27096
O          O       0.82602   0.95979   0.56795  -0.27086
O          O       0.39435   0.39424   0.47653  -0.47698
O          O       0.64054   0.79853   0.55579  -0.43685
O          O       0.60530   0.69160   0.64709  -0.34905
O          O       0.53108   0.83422   0.87991  -0.48209
O          O       0.55035   0.00286   0.89855  -0.44244
O          O       0.32328   0.15216   0.66246  -0.35645
O          O       0.45710   0.14726   0.57370  -0.46353
O          O       0.58306   0.23250   0.00012  -0.46870
O          O       0.66189   0.07981   0.03629  -0.44893
O          O       0.16210   0.08129   0.01069  -0.36189
O          O       0.25110   0.22701   0.05423  -0.46001
O          O       0.01928   0.53004   0.09792  -0.27118
O          O       0.82216   0.53564   0.06286  -0.27194
O          O       0.39398   0.10332   0.97823  -0.47695
O          O       0.36417   0.29947   0.94549  -0.43656
O          O       0.40078   0.19191   0.85484  -0.34850
O          O       0.46978   0.33248   0.61890  -0.48376
O          O       0.45080   0.50060   0.60027  -0.44675
O          O       0.67985   0.65187   0.83622  -0.35431
O          O       0.54288   0.65028   0.92364  -0.46347
O          O       0.42042   0.73265   0.50171  -0.46793
O          O       0.34279   0.57999   0.46530  -0.45043
O          O       0.84370   0.58525   0.49849  -0.35419
O          O       0.75242   0.72622   0.44723  -0.45861
O          O       0.98379   0.02997   0.40381  -0.27264
O          O       0.18111   0.03560   0.43948  -0.26987
O          O       0.60960   0.60183   0.52328  -0.47807

