data_crystal

_audit_creation_method 'AiiDA-DDEC plugin'

_cell_length_a        13.03186
_cell_length_b        13.03186
_cell_length_c        23.63398

_cell_angle_alpha     90.00000
_cell_angle_beta     90.00000
_cell_angle_gamma     90.00000

_symmetry_space_group_name_Hall 'P 1'
_symmetry_space_group_name_H-M  'P 1'

loop_
_symmetry_equiv_pos_as_xyz
 'x,y,z'

loop_
_atom_site_label
_atom_site_type_symbol
_atom_site_fract_x
_atom_site_fract_y
_atom_site_fract_z
_atom_site_charge
Zn         Zn      0.59826  -0.00000   0.00000   0.97881
Zn         Zn      0.40173  -0.00000  -0.00000   0.97905
Zn         Zn      0.00000   0.59826   0.50000   0.97886
Zn         Zn      0.00000   0.40173   0.50000   0.97886
Si         Si      0.50000   0.50000   0.75000   0.68722
Si         Si      0.50000   0.50000   0.25000   0.68713
H          H       0.66564   0.62760   0.80250   0.10264
H          H       0.66449   0.76768   0.87378   0.11976
H          H       0.33436   0.37239   0.80250   0.10272
H          H       0.33551   0.23232   0.87378   0.11985
H          H       0.37239   0.66564   0.30250   0.10266
H          H       0.23232   0.66449   0.37378   0.11976
H          H       0.62760   0.33436   0.30250   0.10277
H          H       0.76768   0.33551   0.37378   0.11983
H          H       0.33436   0.62760   0.19751   0.10279
H          H       0.33551   0.76768   0.12622   0.11979
H          H       0.66564   0.37239   0.19751   0.10270
H          H       0.66449   0.23232   0.12622   0.11972
H          H       0.62760   0.66564   0.69751   0.10274
H          H       0.76768   0.66449   0.62622   0.11966
H          H       0.37239   0.33436   0.69751   0.10282
H          H       0.23232   0.33551   0.62622   0.11976
H          H       0.33436   0.37239   0.19751   0.10275
H          H       0.33551   0.23232   0.12622   0.11981
H          H       0.66564   0.62760   0.19751   0.10273
H          H       0.66449   0.76768   0.12622   0.11971
H          H       0.62760   0.33436   0.69751   0.10282
H          H       0.76768   0.33551   0.62622   0.11972
H          H       0.37239   0.66564   0.69751   0.10272
H          H       0.23232   0.66449   0.62622   0.11968
H          H       0.66564   0.37239   0.80250   0.10263
H          H       0.66449   0.23232   0.87378   0.11976
H          H       0.33436   0.62760   0.80250   0.10273
H          H       0.33551   0.76768   0.87378   0.11984
H          H       0.37239   0.33436   0.30250   0.10272
H          H       0.23232   0.33551   0.37378   0.11983
H          H       0.62760   0.66564   0.30250   0.10269
H          H       0.76768   0.66449   0.37378   0.11977
C          C       0.59270   0.65757   0.81773  -0.08170
C          C       0.59295   0.73622   0.85774  -0.09106
C          C       0.40730   0.34242   0.81773  -0.08171
C          C       0.40705   0.26378   0.85774  -0.09102
C          C       0.34242   0.59269   0.31773  -0.08169
C          C       0.26378   0.59295   0.35774  -0.09105
C          C       0.65757   0.40730   0.31773  -0.08174
C          C       0.73622   0.40705   0.35774  -0.09102
C          C       0.40730   0.65757   0.18228  -0.08175
C          C       0.40705   0.73622   0.14226  -0.09101
C          C       0.59270   0.34242   0.18228  -0.08182
C          C       0.59295   0.26378   0.14226  -0.09098
C          C       0.65757   0.59269   0.68228  -0.08180
C          C       0.73622   0.59295   0.64227  -0.09097
C          C       0.34242   0.40730   0.68228  -0.08184
C          C       0.26378   0.40705   0.64227  -0.09093
C          C       0.40730   0.34242   0.18228  -0.08174
C          C       0.40705   0.26378   0.14226  -0.09102
C          C       0.59270   0.65757   0.18228  -0.08178
C          C       0.59295   0.73622   0.14226  -0.09104
C          C       0.65757   0.40730   0.68228  -0.08171
C          C       0.73622   0.40705   0.64227  -0.09101
C          C       0.34242   0.59269   0.68228  -0.08185
C          C       0.26378   0.59295   0.64227  -0.09097
C          C       0.59270   0.34242   0.81773  -0.08173
C          C       0.59295   0.26378   0.85774  -0.09098
C          C       0.40730   0.65757   0.81773  -0.08172
C          C       0.40705   0.73622   0.85774  -0.09103
C          C       0.34242   0.40730   0.31773  -0.08168
C          C       0.26378   0.40705   0.35774  -0.09105
C          C       0.65757   0.59269   0.31773  -0.08172
C          C       0.73622   0.59295   0.35774  -0.09112
C          C       0.50000   0.61642   0.79705  -0.20741
C          C       0.50000   0.77551   0.87839  -0.03523
C          C       0.49999   0.85769   0.92249   0.59470
C          C       0.50000   0.38358   0.79705  -0.20751
C          C       0.50000   0.22449   0.87839  -0.03527
C          C       0.49999   0.14230   0.92249   0.59452
C          C       0.38358   0.50000   0.29705  -0.20745
C          C       0.22449   0.50000   0.37839  -0.03523
C          C       0.14230   0.50000   0.42249   0.59461
C          C       0.61642   0.50000   0.29705  -0.20733
C          C       0.77551   0.50000   0.37839  -0.03528
C          C       0.85769   0.50000   0.42249   0.59486
C          C       0.50000   0.61642   0.20295  -0.20725
C          C       0.50000   0.77551   0.12162  -0.03531
C          C       0.49999   0.85769   0.07751   0.59490
C          C       0.50000   0.38358   0.20295  -0.20730
C          C       0.50000   0.22449   0.12162  -0.03524
C          C       0.49999   0.14230   0.07751   0.59481
C          C       0.61642   0.50000   0.70296  -0.20717
C          C       0.77551   0.50000   0.62162  -0.03538
C          C       0.85769   0.50000   0.57751   0.59493
C          C       0.38358   0.50000   0.70296  -0.20722
C          C       0.22449   0.50000   0.62162  -0.03528
C          C       0.14230   0.50000   0.57751   0.59475
O          O       0.58742   0.88969   0.93986  -0.55648
O          O       0.41259   0.11031   0.93986  -0.55613
O          O       0.11031   0.58742   0.43986  -0.55647
O          O       0.88969   0.41258   0.43986  -0.55639
O          O       0.41259   0.88968   0.06014  -0.55641
O          O       0.58742   0.11031   0.06014  -0.55659
O          O       0.88969   0.58742   0.56014  -0.55663
O          O       0.11031   0.41258   0.56014  -0.55639
O          O       0.41259   0.11031   0.06014  -0.55635
O          O       0.58742   0.88969   0.06014  -0.55662
O          O       0.88969   0.41258   0.56014  -0.55645
O          O       0.11031   0.58742   0.56014  -0.55649
O          O       0.58742   0.11031   0.93986  -0.55634
O          O       0.41259   0.88968   0.93986  -0.55626
O          O       0.11031   0.41258   0.43986  -0.55622
O          O       0.88969   0.58742   0.43986  -0.55658

