data_crystal

_audit_creation_method 'AiiDA-DDEC plugin'

_cell_length_a        11.50371
_cell_length_b        11.50654
_cell_length_c        15.22743

_cell_angle_alpha     109.64693
_cell_angle_beta     109.61211
_cell_angle_gamma     96.53630

_symmetry_space_group_name_Hall 'P 1'
_symmetry_space_group_name_H-M  'P 1'

loop_
_symmetry_equiv_pos_as_xyz
 'x,y,z'

loop_
_atom_site_label
_atom_site_type_symbol
_atom_site_fract_x
_atom_site_fract_y
_atom_site_fract_z
_atom_site_charge
Cd         Cd     -0.00270   0.73376   0.71590   0.96433
Cd         Cd      0.00270   0.26624   0.28410   0.96440
Cd         Cd      0.73407  -0.00276   0.21546   0.96531
Cd         Cd      0.26593   0.00275   0.78455   0.96531
H          H       0.14586   0.88437   0.07507   0.14732
H          H       0.45177   0.24324   0.13734   0.13634
H          H       0.52529   0.02515   0.31631   0.11491
H          H       0.88432   0.14570   0.57559   0.14723
H          H       0.24328   0.45170   0.63737   0.13645
H          H       0.33899   0.32029   0.88175   0.11160
H          H       0.85413   0.11563   0.92493   0.14722
H          H       0.54822   0.75675   0.86266   0.13648
H          H       0.17882   0.05224   0.58339   0.10723
H          H       0.94755   0.82104   0.91636   0.10728
H          H       0.67946   0.66093   0.61806   0.11221
H          H       0.05244   0.17895   0.08364   0.10753
H          H       0.47470   0.97484   0.68369   0.11486
H          H       0.10336   0.51172   0.48312   0.10593
H          H       0.11567   0.85429   0.42441   0.14709
H          H       0.02540   0.52529   0.81655   0.11444
H          H       0.48851   0.89674   0.01657   0.10551
H          H       0.75671   0.54830   0.36263   0.13652
H          H       0.66101   0.67971   0.11826   0.11150
H          H       0.05041   0.01490   0.81697   0.37476
H          H       0.89664   0.48827   0.51688   0.10565
H          H       0.82118   0.94775   0.41661   0.10716
H          H       0.97459   0.47470   0.18345   0.11449
H          H       0.32053   0.33907   0.38195   0.11235
H          H       0.51148   0.10325   0.98343   0.10573
H          H       0.98520   0.94972   0.68445   0.37598
H          H       0.94958   0.98510   0.18303   0.37475
H          H       0.01479   0.05027   0.31555   0.37606
C          C       0.15286   0.21265   0.13461   0.06555
C          C       0.23191   0.83469   0.91851   0.57362
C          C       0.40233   0.29747   0.26842   0.09333
C          C       0.21247   0.15267   0.63430   0.06656
C          C       0.79252   0.85316   0.01784   0.57149
C          C       0.91214   0.44009   0.56866   0.06291
C          C       0.67150   0.04141   0.79505   0.09503
C          C       0.29729   0.40202   0.76819   0.09266
C          C       0.98391   0.46092   0.73648   0.00378
C          C       0.04147   0.67153   0.29473   0.09501
C          C       0.59766   0.70253   0.73159   0.09330
C          C       0.24944   0.90514   0.10120  -0.12141
C          C       0.55966   0.08769   0.93163   0.06196
C          C       0.79462   0.75292   0.40437  -0.05877
C          C       0.84713   0.78734   0.86539   0.06577
C          C       0.01609   0.53907   0.26352   0.00357
C          C       0.30260   0.30246   0.80128   0.00289
C          C       0.62452   0.75120   0.83555  -0.12473
C          C       0.75056   0.09486   0.89880  -0.12170
C          C       0.75263   0.79442   0.90394  -0.05654
C          C       0.11702   0.69292   0.46802  -0.04851
C          C       0.69739   0.69753   0.19872   0.00286
C          C       0.69269   0.11701   0.96835  -0.04932
C          C       0.83544   0.23196   0.41885   0.57226
C          C       0.09501   0.75074   0.39847  -0.12163
C          C       0.20538   0.24707   0.59564  -0.05901
C          C       0.70271   0.59797   0.23181   0.09264
C          C       0.30731   0.88299   0.03165  -0.04948
C          C       0.88298   0.30707   0.53198  -0.04866
C          C       0.85299   0.79278   0.51846   0.57347
C          C       0.78752   0.84733   0.36570   0.06634
C          C       0.20748   0.14683   0.98216   0.57131
C          C       0.24864   0.37518   0.66421  -0.12455
C          C       0.16455   0.76803   0.58115   0.57248
C          C       0.90499   0.24925   0.60153  -0.12139
C          C       0.24736   0.20557   0.09606  -0.05641
C          C       0.95852   0.32846   0.70528   0.09500
C          C       0.46100   0.98392   0.23621   0.00236
C          C       0.14701   0.20721   0.48154   0.57392
C          C       0.53900   0.01608   0.76379   0.00249
C          C       0.44033   0.91230   0.06837   0.06212
C          C       0.76808   0.16531   0.08149   0.57359
C          C       0.32850   0.95858   0.20495   0.09517
C          C       0.30270   0.30273   0.30149   0.00146
C          C       0.08785   0.55990   0.43134   0.06270
C          C       0.75135   0.62482   0.33579  -0.12433
C          C       0.69729   0.69726   0.69851   0.00163
C          C       0.37547   0.24879   0.16445  -0.12507
N          N       0.95967   0.51469   0.66847  -0.21301
N          N       0.48513   0.04015   0.83178  -0.21114
N          N       0.26069   0.17973   0.73462  -0.23265
N          N       0.82004   0.73909   0.76511  -0.23146
N          N       0.17995   0.26091   0.23489  -0.23106
N          N       0.04032   0.48530   0.33153  -0.21269
N          N       0.73931   0.82026   0.26538  -0.23272
N          N       0.51486   0.95984   0.16822  -0.21143
Cl         Cl     -0.00283   0.26602   0.79721  -0.04027
Cl         Cl      0.55897   0.34969   0.35810  -0.04348
Cl         Cl      0.26584   0.99697   0.29680  -0.03969
Cl         Cl      0.00282   0.73397   0.20279  -0.04047
Cl         Cl      0.44102   0.65030   0.64190  -0.04339
Cl         Cl      0.65039   0.44136   0.14202  -0.04351
Cl         Cl      0.73416   0.00303   0.70320  -0.03993
Cl         Cl      0.34960   0.55863   0.85798  -0.04366
O          O       0.85917   0.29165   0.36814  -0.58284
O          O       0.08791   0.10377   0.92868  -0.53931
O          O       0.77647   0.11481   0.38434  -0.55730
O          O       0.10351   0.08773   0.42780  -0.54193
O          O       0.14083   0.70835   0.63186  -0.58263
O          O       0.14505   0.29659   0.44973  -0.57349
O          O       0.04988   0.95010   0.75064  -0.79122
O          O       0.22352   0.88519   0.61566  -0.55777
O          O       0.29110   0.85701   0.86703  -0.58503
O          O       0.70319   0.85593   0.04972  -0.57217
O          O       0.89648   0.91226   0.57220  -0.54202
O          O       0.91208   0.89622   0.07132  -0.53968
O          O       0.11458   0.77647   0.88471  -0.55698
O          O       0.88541   0.22352   0.11529  -0.55752
O          O       0.29680   0.14406   0.95028  -0.57246
O          O       0.85494   0.70341   0.55027  -0.57289
O          O       0.95012   0.04989   0.24936  -0.79133
O          O       0.70889   0.14298   0.13297  -0.58454

