data_crystal

_audit_creation_method 'AiiDA-DDEC plugin'

_cell_length_a        13.01959
_cell_length_b        14.20500
_cell_length_c        14.96846

_cell_angle_alpha     116.39161
_cell_angle_beta     113.54936
_cell_angle_gamma     94.27381

_symmetry_space_group_name_Hall 'P 1'
_symmetry_space_group_name_H-M  'P 1'

loop_
_symmetry_equiv_pos_as_xyz
 'x,y,z'

loop_
_atom_site_label
_atom_site_type_symbol
_atom_site_fract_x
_atom_site_fract_y
_atom_site_fract_z
_atom_site_charge
Cd         Cd      0.93569   0.68574   0.37048   1.03195
Cd         Cd      0.06431   0.31427   0.62952   1.03192
Cd         Cd      0.00000   0.00000   0.50000   1.16817
Cd         Cd     -0.00000   0.50000   0.50000   1.16966
Si         Si      0.70587   0.95555   0.91163   0.69252
Si         Si      0.29413   0.04445   0.08838   0.69249
H          H       0.65191   0.75287   0.69835   0.10219
H          H       0.73068   0.70397   0.56220   0.11847
H          H       0.98346   0.02695   0.77561   0.09912
H          H       0.90862   0.07712   0.91416   0.09670
H          H       0.69736   0.00271   0.12196   0.09675
H          H       0.77212   0.93517   0.25510   0.10744
H          H       0.90094   0.71615   0.04759   0.12292
H          H       0.82732   0.78409   0.91280   0.10229
H          H       0.54722   0.94549   0.69930   0.10321
H          H       0.33194   0.85823   0.56303   0.11896
H          H       0.29163   0.74854   0.77514   0.09809
H          H       0.50545   0.83699   0.91394   0.09668
H          H       0.92402   0.11887   0.12167   0.09738
H          H       0.98315   0.32028   0.25529   0.10784
H          H       0.64730   0.33181   0.04811   0.12358
H          H       0.58527   0.12834   0.91279   0.10186
H          H       0.34809   0.24713   0.30165   0.10226
H          H       0.26932   0.29603   0.43780   0.11848
H          H       0.01655   0.97305   0.22439   0.09904
H          H       0.09138   0.92288   0.08584   0.09664
H          H       0.30264   0.99729   0.87804   0.09672
H          H       0.22788   0.06484   0.74490   0.10743
H          H       0.09906   0.28385   0.95241   0.12296
H          H       0.17268   0.21592   0.08721   0.10229
H          H       0.45278   0.05451   0.30070   0.10318
H          H       0.66806   0.14177   0.43697   0.11897
H          H       0.70837   0.25146   0.22486   0.09819
H          H       0.49456   0.16302   0.08606   0.09668
H          H       0.07599   0.88113   0.87833   0.09734
H          H       0.01686   0.67972   0.74472   0.10773
H          H       0.35271   0.66819   0.95189   0.12355
H          H       0.41473   0.87166   0.08722   0.10192
C          C       0.77415   0.91866   0.81632  -0.21563
C          C       0.72602   0.81287   0.71689  -0.07693
C          C       0.76906   0.78487   0.63979  -0.10028
C          C       0.86085   0.86346   0.66031  -0.03433
C          C       0.91151   0.96773   0.76027  -0.09492
C          C       0.86914   0.99496   0.83781  -0.07367
C          C       0.90154   0.83827   0.57382   0.60512
C          C       0.75708   0.89821   0.00743  -0.20453
C          C       0.74109   0.93944   0.10417  -0.06951
C          C       0.78358   0.90252   0.17998  -0.08138
C          C       0.84244   0.82289   0.15999  -0.03913
C          C       0.85592   0.77853   0.06211  -0.08210
C          C       0.81416   0.81663   0.98711  -0.07729
C          C       0.89072   0.78507   0.24169   0.57621
C          C       0.54234   0.89721   0.81633  -0.21577
C          C       0.49131   0.90392   0.71741  -0.07829
C          C       0.37108   0.85490   0.64037  -0.10015
C          C       0.29957   0.79670   0.66047  -0.03567
C          C       0.34858   0.79245   0.76018  -0.09316
C          C       0.46860   0.84267   0.83773  -0.07376
C          C       0.17229   0.73545   0.57387   0.60568
C          C       0.75008   0.10898   0.00740  -0.20482
C          C       0.86280   0.16459   0.10417  -0.06983
C          C       0.89648   0.27765   0.18023  -0.08414
C          C       0.81779   0.33733   0.16041  -0.03486
C          C       0.70644   0.28369   0.06244  -0.08333
C          C       0.67280   0.17024   0.98717  -0.07659
C          C       0.85153   0.45720   0.24230   0.57212
C          C       0.22585   0.08134   0.18368  -0.21566
C          C       0.27398   0.18714   0.28311  -0.07697
C          C       0.23094   0.21513   0.36021  -0.10016
C          C       0.13915   0.13655   0.33969  -0.03424
C          C       0.08849   0.03227   0.23973  -0.09505
C          C       0.13086   0.00504   0.16219  -0.07357
C          C       0.09846   0.16173   0.42619   0.60514
C          C       0.24292   0.10180   0.99257  -0.20448
C          C       0.25891   0.06056   0.89584  -0.06949
C          C       0.21642   0.09748   0.82002  -0.08133
C          C       0.15757   0.17711   0.84002  -0.03923
C          C       0.14408   0.22147   0.93789  -0.08203
C          C       0.18585   0.18337   0.01289  -0.07733
C          C       0.10929   0.21494   0.75831   0.57619
C          C       0.45766   0.10279   0.18367  -0.21587
C          C       0.50869   0.09609   0.28260  -0.07829
C          C       0.62892   0.14510   0.35963  -0.10009
C          C       0.70044   0.20330   0.33953  -0.03568
C          C       0.65142   0.20756   0.23982  -0.09325
C          C       0.53140   0.15733   0.16227  -0.07370
C          C       0.82771   0.26455   0.42614   0.60564
C          C       0.24992   0.89102   0.99260  -0.20483
C          C       0.13721   0.83541   0.89583  -0.06975
C          C       0.10352   0.72236   0.81977  -0.08414
C          C       0.18221   0.66267   0.83959  -0.03488
C          C       0.29356   0.71632   0.93756  -0.08330
C          C       0.32721   0.82976   0.01283  -0.07657
C          C       0.14847   0.54281   0.75770   0.57221
O          O       0.86515   0.73828   0.49301  -0.56188
O          O       0.97041   0.92029   0.58945  -0.62105
O          O       0.89123   0.83668   0.33983  -0.64404
O          O       0.92560   0.70138   0.21562  -0.49705
O          O       0.12858   0.75441   0.49314  -0.56212
O          O       0.11843   0.66960   0.58953  -0.62058
O          O       0.94874   0.50399   0.34065  -0.64273
O          O       0.79112   0.51495   0.21606  -0.49650
O          O       0.13486   0.26173   0.50699  -0.56179
O          O       0.02959   0.07971   0.41055  -0.62116
O          O       0.10877   0.16332   0.66017  -0.64405
O          O       0.07440   0.29863   0.78438  -0.49698
O          O       0.87142   0.24560   0.50686  -0.56212
O          O       0.88157   0.33040   0.41048  -0.62050
O          O       0.05126   0.49601   0.65935  -0.64282
O          O       0.20889   0.48505   0.78395  -0.49650

