data_crystal

_audit_creation_method 'AiiDA-DDEC plugin'

_cell_length_a        10.37051
_cell_length_b        11.76575
_cell_length_c        17.74827

_cell_angle_alpha     89.96468
_cell_angle_beta     90.01533
_cell_angle_gamma     109.76731

_symmetry_space_group_name_Hall 'P 1'
_symmetry_space_group_name_H-M  'P 1'

loop_
_symmetry_equiv_pos_as_xyz
 'x,y,z'

loop_
_atom_site_label
_atom_site_type_symbol
_atom_site_fract_x
_atom_site_fract_y
_atom_site_fract_z
_atom_site_charge
Eu         Eu      0.49040   0.32339   0.99132   1.69793
Eu         Eu      0.50973   0.17662   0.49139   1.70021
Eu         Eu      0.50961   0.67661   0.00868   1.69796
Eu         Eu      0.49028   0.82338   0.50861   1.70019
H          H       0.39833   0.35555   0.71360   0.14462
H          H       0.45578   0.46251   0.58866   0.12667
H          H       0.64825   0.79247   0.69230   0.13962
H          H       0.59572   0.69940   0.82231   0.14307
H          H       0.02660   0.20660   0.00542   0.15121
H          H       0.77119   0.14666   0.02265   0.12668
H          H       0.80748   0.47233   0.12544   0.14003
H          H       0.06715   0.54851   0.10868   0.14054
H          H       0.60232   0.14512   0.21407   0.14407
H          H       0.54513   0.03925   0.08878   0.12736
H          H       0.35199   0.70846   0.19166   0.13928
H          H       0.40431   0.80046   0.32191   0.14267
H          H       0.97464   0.29433   0.50552   0.15108
H          H       0.23003   0.35280   0.52282   0.12726
H          H       0.19091   0.02622   0.62543   0.13981
H          H       0.93132   0.95143   0.60856   0.14021
H          H       0.60168   0.64445   0.28640   0.14455
H          H       0.54423   0.53749   0.41134   0.12666
H          H       0.35176   0.20752   0.30770   0.13964
H          H       0.40429   0.30060   0.17769   0.14305
H          H       0.97341   0.79340   0.99458   0.15104
H          H       0.22882   0.85334   0.97735   0.12673
H          H       0.19253   0.52767   0.87457   0.14023
H          H       0.93285   0.45149   0.89132   0.14057
H          H       0.39769   0.85488   0.78593   0.14410
H          H       0.45488   0.96075   0.91122   0.12742
H          H       0.64802   0.29154   0.80834   0.13923
H          H       0.59569   0.19953   0.67809   0.14263
H          H       0.02536   0.70566   0.49448   0.15130
H          H       0.76998   0.64720   0.47718   0.12717
H          H       0.80910   0.97378   0.37457   0.13968
H          H       0.06869   0.04857   0.39144   0.14020
C          C       0.46535   0.45847   0.85327   0.59449
C          C       0.49082   0.51992   0.77808  -0.00601
C          C       0.45116   0.45260   0.71168  -0.11420
C          C       0.48113   0.50861   0.64238  -0.01843
C          C       0.59259   0.69751   0.70197  -0.02070
C          C       0.56180   0.64432   0.77210  -0.11463
C          C       0.21810   0.42597   0.03909   0.60526
C          C       0.06659   0.38284   0.05580  -0.01507
C          C       0.98246   0.26810   0.03228  -0.10834
C          C       0.84206   0.23263   0.04154  -0.03412
C          C       0.86426   0.41983   0.10009  -0.04281
C          C       0.00468   0.45829   0.09057  -0.11912
C          C       0.53466   0.04175   0.35334   0.59541
C          C       0.50934   0.98045   0.27812  -0.00711
C          C       0.54926   0.04812   0.21183  -0.11238
C          C       0.51933   0.99266   0.14238  -0.02199
C          C       0.40754   0.80338   0.20164  -0.01958
C          C       0.43831   0.85608   0.27189  -0.11457
C          C       0.78177   0.07569   0.53902   0.60858
C          C       0.93327   0.11781   0.55575  -0.01566
C          C       0.01822   0.23236   0.53234  -0.10724
C          C       0.15858   0.26697   0.54160  -0.03698
C          C       0.13468   0.07918   0.60002  -0.04227
C          C       0.99429   0.04157   0.59049  -0.11996
C          C       0.53466   0.54152   0.14673   0.59493
C          C       0.50919   0.48008   0.22193  -0.00624
C          C       0.54885   0.54740   0.28832  -0.11414
C          C       0.51888   0.49139   0.35762  -0.01825
C          C       0.40742   0.30249   0.29803  -0.02087
C          C       0.43820   0.35568   0.22790  -0.11450
C          C       0.78190   0.57403   0.96092   0.60545
C          C       0.93342   0.61715   0.94420  -0.01519
C          C       0.01755   0.73190   0.96772  -0.10836
C          C       0.15795   0.76736   0.95846  -0.03411
C          C       0.13575   0.58017   0.89991  -0.04285
C          C       0.99533   0.54170   0.90943  -0.11921
C          C       0.46535   0.95824   0.64666   0.59554
C          C       0.49067   0.01955   0.72188  -0.00746
C          C       0.45074   0.95188   0.78818  -0.11222
C          C       0.48067   0.00734   0.85762  -0.02197
C          C       0.59247   0.19662   0.79836  -0.01954
C          C       0.56170   0.14392   0.72812  -0.11456
C          C       0.21824   0.92431   0.46098   0.60863
C          C       0.06674   0.88219   0.44425  -0.01571
C          C       0.98179   0.76763   0.46766  -0.10719
C          C       0.84143   0.73303   0.45840  -0.03673
C          C       0.86533   0.92081   0.39998  -0.04259
C          C       0.00572   0.95843   0.40951  -0.11987
N          N       0.26985   0.08971   0.03367   0.70943
N          N       0.55241   0.62968   0.63798   0.36064
N          N       0.78391   0.30819   0.07500   0.35310
N          N       0.72986   0.41190   0.53355   0.71166
N          N       0.44777   0.87163   0.13776   0.35971
N          N       0.21585   0.19061   0.57495   0.35494
N          N       0.73015   0.91029   0.96633   0.70965
N          N       0.44760   0.37032   0.36202   0.36068
N          N       0.21610   0.69181   0.92500   0.35291
N          N       0.27015   0.58809   0.46646   0.71157
N          N       0.55224   0.12837   0.86224   0.35970
N          N       0.78416   0.80939   0.42506   0.35489
O          O       0.35043   0.15429   0.08382  -0.46962
O          O       0.29877   0.12014   0.96485  -0.44330
O          O       0.44039   0.34523   0.85551  -0.59267
O          O       0.47357   0.52247   0.91237  -0.68155
O          O       0.58515   0.67998   0.57150  -0.52650
O          O       0.26585   0.34761   0.01397  -0.62063
O          O       0.28330   0.53795   0.04936  -0.63781
O          O       0.65034   0.27355   0.08340  -0.52003
O          O       0.16872   0.00069   0.05034  -0.34903
O          O       0.64877   0.34819   0.58377  -0.47034
O          O       0.70102   0.38141   0.46477  -0.44350
O          O       0.55977   0.15498   0.35543  -0.59290
O          O       0.52620   0.97775   0.41251  -0.68247
O          O       0.41490   0.82175   0.07123  -0.52258
O          O       0.73462   0.15484   0.51439  -0.62206
O          O       0.71607   0.96376   0.54903  -0.63858
O          O       0.34931   0.22426   0.58341  -0.52156
O          O       0.83180   0.50029   0.55012  -0.34923
O          O       0.64958   0.84571   0.91618  -0.46993
O          O       0.70124   0.87986   0.03515  -0.44320
O          O       0.55962   0.65477   0.14450  -0.59291
O          O       0.52644   0.47753   0.08763  -0.68161
O          O       0.41485   0.32002   0.42850  -0.52653
O          O       0.73416   0.65239   0.98603  -0.62093
O          O       0.71671   0.46205   0.95064  -0.63772
O          O       0.34967   0.72645   0.91660  -0.51968
O          O       0.83129  -0.00069   0.94966  -0.34900
O          O       0.35124   0.65181   0.41624  -0.47030
O          O       0.29898   0.61859   0.53523  -0.44331
O          O       0.44024   0.84501   0.64457  -0.59284
O          O       0.47380   0.02224   0.58749  -0.68262
O          O       0.58510   0.17824   0.92877  -0.52242
O          O       0.26539   0.84516   0.48561  -0.62185
O          O       0.28394   0.03624   0.45097  -0.63876
O          O       0.65070   0.77573   0.41659  -0.52178
O          O       0.16821   0.49971   0.44988  -0.34942

