data_crystal

_audit_creation_method 'AiiDA-DDEC plugin'

_cell_length_a         4.49132
_cell_length_b        18.55377
_cell_length_c        17.68397

_cell_angle_alpha     87.05207
_cell_angle_beta     81.55909
_cell_angle_gamma     80.37559

_symmetry_space_group_name_Hall 'P 1'
_symmetry_space_group_name_H-M  'P 1'

loop_
_symmetry_equiv_pos_as_xyz
 'x,y,z'

loop_
_atom_site_label
_atom_site_type_symbol
_atom_site_fract_x
_atom_site_fract_y
_atom_site_fract_z
_atom_site_charge
Li         Li      0.61431   0.57803   0.49692   0.82792
Li         Li      0.02925   0.07311   0.91109   0.83730
Cd         Cd      0.23043   0.46826   0.49893   1.04049
Cd         Cd      0.47292   0.98693   0.01452   1.05120
H          H      -0.00214   0.55563   0.79461   0.12143
H          H       0.18052   0.51087   0.92001   0.12329
H          H       0.00884   0.39780   0.79736   0.12989
H          H       0.81668   0.44044   0.67255   0.12163
H          H       0.40288   0.45109   0.21945   0.12237
H          H       0.63046   0.48951   0.08728   0.12811
H          H       0.22130   0.60575   0.18707   0.12987
H          H      -0.00675   0.56574   0.31832   0.13275
H          H       0.40218   0.19517   0.56049   0.12208
H          H       0.31772   0.07197   0.51994   0.12831
H          H       0.60041   0.17866   0.39769   0.12854
H          H       0.69117   0.30108   0.43790   0.13075
H          H       0.23373   0.79378   0.44979   0.12604
H          H       0.91266   0.91389   0.48972   0.12433
H          H       0.23395   0.79922   0.61564   0.13042
H          H       0.56427   0.68000   0.57924   0.10997
H          H       0.76160   0.70143   0.94127   0.12191
H          H       0.60805   0.57860   0.98398   0.12727
H          H       0.77000   0.68789   0.10551   0.12914
H          H       0.92876   0.81003   0.06334   0.12990
H          H       0.43410   0.28833   0.04658   0.12237
H          H       0.18346   0.41345   0.00644   0.12625
H          H       0.60377   0.31435   0.88468   0.12970
H          H       0.83560   0.19167   0.93059   0.08737
H          H       0.34846   0.94643   0.29752   0.12431
H          H       0.45166   0.98261   0.42625   0.12597
H          H       0.13816   0.10242   0.31366   0.13098
H          H       0.02881   0.06637   0.18538   0.13502
H          H       0.49273   0.04474   0.69395   0.12181
H          H       0.82093   0.00095   0.57171   0.11964
H          H       0.50060   0.88618   0.70101   0.13187
H          H       0.16863   0.93072   0.82314   0.13064
C          C       0.28315   0.52110   0.65311   0.55603
C          C       0.39778   0.49852   0.72667  -0.03840
C          C       0.20651   0.51697   0.79621  -0.05831
C          C       0.31920   0.49673   0.86549  -0.21724
C          C       0.60851   0.45662   0.86456   0.24159
C          C       0.80237   0.43720   0.79614  -0.19986
C          C       0.68677   0.45763   0.72704  -0.03692
C          C       0.54521   0.49307   0.35543   0.57887
C          C       0.67400   0.51148   0.27614  -0.04216
C          C       0.56544   0.48888   0.21152  -0.05324
C          C       0.71137   0.50505   0.13824  -0.20589
C          C       0.94740   0.54525   0.13063   0.23383
C          C       0.05924   0.56798   0.19445  -0.19284
C          C       0.91355   0.55119   0.26695  -0.04795
C          C       0.11035   0.32856   0.51405   0.53857
C          C       0.05997   0.25467   0.49679  -0.03799
C          C       0.24505   0.19077   0.52055  -0.05469
C          C       0.17882   0.12250   0.50361  -0.20722
C          C       0.94458   0.11949   0.46181   0.23220
C          C       0.75630   0.18261   0.43797  -0.18983
C          C       0.82472   0.25021   0.45506  -0.05189
C          C       0.11583   0.66044   0.48743   0.58390
C          C       0.91629   0.72970   0.51229  -0.04658
C          C       0.02587   0.79591   0.49000  -0.05437
C          C       0.83599   0.86242   0.50770  -0.21675
C          C       0.55079   0.86265   0.54978   0.24491
C          C       0.43884   0.79759   0.57448  -0.19677
C          C       0.63287   0.73117   0.55662  -0.03964
C          C       0.44512   0.83496   0.98387   0.53595
C          C       0.35548   0.76210   0.00361  -0.03261
C          C       0.55825   0.69740   0.98166  -0.05844
C          C       0.46031   0.62973  -0.00006  -0.20930
C          C       0.17591   0.62780   0.04161   0.23921
C          C       0.97106   0.69163   0.06442  -0.19229
C          C       0.07066   0.75883   0.04566  -0.04816
C          C       0.31692   0.15744   0.00905   0.57295
C          C       0.16859   0.23163   0.98473  -0.05866
C          C       0.26865   0.29488   0.00686  -0.04946
C          C       0.11020   0.36429   0.98976  -0.20845
C          C       0.86989   0.37051   0.94805   0.23652
C          C       0.76774   0.30854   0.92464  -0.18910
C          C       0.92403   0.23974   0.94367  -0.06714
C          C       0.61557   0.99134   0.15856   0.53037
C          C       0.67609   0.00827   0.23495  -0.02979
C          C       0.50193   0.98482   0.30206  -0.05516
C          C       0.57915  -0.00039   0.37313  -0.20812
C          C       0.81212   0.03922   0.37566   0.23774
C          C       0.98667   0.06361   0.30939  -0.19550
C          C       0.90840   0.04837   0.23886  -0.04528
C          C       0.62437   0.01581   0.83664   0.60667
C          C       0.81304   0.98807   0.76524  -0.06696
C          C       0.70137   0.00587   0.69481  -0.05288
C          C       0.89359   0.98550   0.62694  -0.22354
C          C       0.17938   0.94495   0.63023   0.24162
C          C       0.29308   0.92530   0.69986  -0.19403
C          C       0.09932   0.94637   0.76752  -0.03448
O          O       0.47253   0.50567   0.59055  -0.65364
O          O       0.01281   0.55330   0.65517  -0.44392
O          O       0.65728   0.51660   0.40999  -0.64575
O          O       0.32940   0.45534   0.36693  -0.50626
O          O       0.92949   0.38277   0.48903  -0.51807
O          O       0.32665   0.33727   0.54981  -0.50638
O          O       0.01177   0.59920   0.49962  -0.68357
O          O       0.38276   0.66564   0.45495  -0.56850
O          O       0.24459   0.89078   0.00723  -0.52929
O          O       0.70284   0.84005   0.94687  -0.46218
O          O       0.19985   0.10193   0.99144  -0.69201
O          O       0.53905   0.15302   0.04520  -0.45573
O          O       0.78407   0.01324   0.09973  -0.50565
O          O       0.39980   0.95636   0.15210  -0.48727
O          O       0.75595   0.00719   0.89825  -0.69710
O          O       0.35544   0.04755   0.83307  -0.62868
O          O       0.71335   0.44038   0.93498  -0.20015
O          O       0.08609   0.55960   0.05682  -0.19495
O          O       0.88514   0.05056   0.44739  -0.19153
O          O       0.36724   0.93065   0.56084  -0.19315

