data_crystal

_audit_creation_method 'AiiDA-DDEC plugin'

_cell_length_a         6.40890
_cell_length_b        17.38965
_cell_length_c        23.70304

_cell_angle_alpha     90.00000
_cell_angle_beta     90.54934
_cell_angle_gamma     90.00000

_symmetry_space_group_name_Hall 'P 1'
_symmetry_space_group_name_H-M  'P 1'

loop_
_symmetry_equiv_pos_as_xyz
 'x,y,z'

loop_
_atom_site_label
_atom_site_type_symbol
_atom_site_fract_x
_atom_site_fract_y
_atom_site_fract_z
_atom_site_charge
Gd         Gd      0.26996   0.05698   0.02406   2.03144
Gd         Gd      0.73004   0.55698   0.47594   2.03154
Gd         Gd      0.73005   0.94302   0.97594   2.03149
Gd         Gd      0.26996   0.44302   0.52406   2.03155
H          H       0.64192   0.77435   0.82228   0.13713
H          H       0.02375   0.83113   0.76154   0.11428
H          H       0.96369   0.90660   0.84861   0.11124
H          H       0.06484   0.69330   0.74028   0.13745
H          H       0.73570   0.70223   0.63738   0.11904
H          H       0.67866   0.79120   0.71860   0.11264
H          H       0.12838   0.57029   0.62554   0.35472
H          H       0.35809   0.27435   0.67771   0.13699
H          H       0.97626   0.33113   0.73846   0.11423
H          H       0.03632   0.40660   0.65139   0.11140
H          H       0.93517   0.19331   0.75971   0.13769
H          H       0.26431   0.20223   0.86261   0.11886
H          H       0.32135   0.29120   0.78140   0.11261
H          H       0.87163   0.07029   0.87445   0.35459
H          H       0.35808   0.22565   0.17771   0.13434
H          H       0.97626   0.16886   0.23846   0.11418
H          H       0.03631   0.09340   0.15139   0.11140
H          H       0.93517   0.30669   0.25972   0.14041
H          H       0.26431   0.29777   0.36261   0.11896
H          H       0.32135   0.20879   0.28140   0.11267
H          H       0.87163   0.42971   0.37446   0.35458
H          H       0.64192   0.72565   0.32228   0.13699
H          H       0.02374   0.66886   0.26154   0.11423
H          H       0.96369   0.59340   0.34861   0.11140
H          H       0.06483   0.80669   0.24028   0.13776
H          H       0.73569   0.79777   0.13739   0.11897
H          H       0.67865   0.70879   0.21860   0.11270
H          H       0.12837   0.92971   0.12554   0.35456
C          C       0.22982   0.93461   0.93173   0.65741
C          C       0.27299   0.88866   0.88255  -0.21897
C          C       0.47404   0.85327   0.87420   0.39575
C          C       0.49635   0.80549   0.82624  -0.27054
C          C       0.33744   0.79730   0.78593   0.10821
C          C       0.14527   0.83566   0.79361  -0.18097
C          C       0.11373   0.87901   0.84146  -0.04826
C          C       0.36872   0.74837   0.73552   0.10255
C          C       0.21006   0.69847   0.71749  -0.26932
C          C       0.23803   0.65052   0.67053   0.32036
C          C       0.43175   0.65120   0.64161  -0.20852
C          C       0.58860   0.70267   0.65985  -0.04652
C          C       0.55778   0.75094   0.70567  -0.18110
C          C       0.46907   0.59945   0.59363   0.66529
C          C       0.77019   0.43461   0.56826   0.65712
C          C       0.72702   0.38866   0.61744  -0.21894
C          C       0.52597   0.35328   0.62580   0.39597
C          C       0.50366   0.30549   0.67376  -0.27077
C          C       0.66257   0.29730   0.71407   0.10821
C          C       0.85474   0.33566   0.70639  -0.18097
C          C       0.88628   0.37902   0.65853  -0.04824
C          C       0.63129   0.24837   0.76447   0.10256
C          C       0.78995   0.19848   0.78251  -0.26934
C          C       0.76198   0.15053   0.82947   0.32038
C          C       0.56826   0.15120   0.85838  -0.20868
C          C       0.41141   0.20267   0.84014  -0.04661
C          C       0.44223   0.25094   0.79433  -0.18100
C          C       0.53094   0.09945   0.90637   0.66571
C          C       0.77018   0.06539   0.06826   0.65721
C          C       0.72702   0.11134   0.11744  -0.21899
C          C       0.52597   0.14672   0.12580   0.39618
C          C       0.50366   0.19451   0.17376  -0.26866
C          C       0.66256   0.20270   0.21407   0.10837
C          C       0.85473   0.16434   0.20639  -0.18106
C          C       0.88628   0.12098   0.15853  -0.04824
C          C       0.63128   0.25162   0.26447   0.10245
C          C       0.78995   0.30152   0.28251  -0.27181
C          C       0.76198   0.34947   0.32947   0.32018
C          C       0.56826   0.34880   0.35839  -0.20849
C          C       0.41141   0.29733   0.34014  -0.04667
C          C       0.44223   0.24906   0.29433  -0.18074
C          C       0.53093   0.40055   0.40637   0.66544
C          C       0.22982   0.56538   0.43173   0.65726
C          C       0.27298   0.61134   0.38255  -0.21908
C          C       0.47404   0.64672   0.37420   0.39606
C          C       0.49634   0.69450   0.32624  -0.27084
C          C       0.33744   0.70270   0.28593   0.10826
C          C       0.14527   0.66434   0.29361  -0.18094
C          C       0.11372   0.62098   0.34146  -0.04816
C          C       0.36872   0.75162   0.23553   0.10250
C          C       0.21005   0.80152   0.21749  -0.26974
C          C       0.23803   0.84947   0.17053   0.32048
C          C       0.43174   0.84880   0.14161  -0.20869
C          C       0.58859   0.79732   0.15986  -0.04647
C          C       0.55777   0.74906   0.20567  -0.18085
C          C       0.46907   0.90054   0.09363   0.66559
O          O       0.05276   0.96893   0.93882  -0.74358
O          O       0.36631   0.94311   0.97179  -0.75213
O          O       0.62730   0.60936   0.56177  -0.65957
O          O       0.33521   0.54450   0.58582  -0.66862
O          O       0.63440   0.86305   0.90852  -0.68484
O          O       0.07486   0.60581   0.65490  -0.43466
O          O       0.94725   0.46893   0.56117  -0.74325
O          O       0.63370   0.44312   0.52820  -0.75186
O          O       0.37271   0.10936   0.93823  -0.66007
O          O       0.66479   0.04450   0.91417  -0.66865
O          O       0.36561   0.36306   0.59147  -0.68502
O          O       0.92515   0.10582   0.84509  -0.43441
O          O       0.94725   0.03107   0.06118  -0.74333
O          O       0.63370   0.05688   0.02820  -0.75197
O          O       0.37271   0.39064   0.43823  -0.65972
O          O       0.66479   0.45550   0.41417  -0.66863
O          O       0.36560   0.13694   0.09147  -0.68492
O          O       0.92514   0.39418   0.34509  -0.43461
O          O       0.05275   0.53107   0.43882  -0.74334
O          O       0.36630   0.55688   0.47180  -0.75197
O          O       0.62730   0.89064   0.06177  -0.65972
O          O       0.33521   0.95550   0.08582  -0.66881
O          O       0.63440   0.63694   0.40853  -0.68503
O          O       0.07486   0.89418   0.15490  -0.43466

