data_crystal

_audit_creation_method 'AiiDA-DDEC plugin'

_cell_length_a        10.53740
_cell_length_b        10.55826
_cell_length_c        19.65626

_cell_angle_alpha     88.47963
_cell_angle_beta     88.57968
_cell_angle_gamma     79.84794

_symmetry_space_group_name_Hall 'P 1'
_symmetry_space_group_name_H-M  'P 1'

loop_
_symmetry_equiv_pos_as_xyz
 'x,y,z'

loop_
_atom_site_label
_atom_site_type_symbol
_atom_site_fract_x
_atom_site_fract_y
_atom_site_fract_z
_atom_site_charge
Ni         Ni      0.25953   0.17247   0.80023   0.75896
Ni         Ni      0.82743   0.74107   0.69885   0.75913
Ni         Ni      0.74047   0.82752   0.19979   0.75905
Ni         Ni      0.17257   0.25893   0.30114   0.75913
H          H       0.09442   0.98041   0.82219   0.09790
H          H       0.86538   0.96942   0.84959   0.12529
H          H       0.78642   0.38641   0.83314   0.14127
H          H       0.01892   0.37878   0.80759   0.12281
H          H       0.67735   0.15447  -0.00100   0.12002
H          H       0.69318   0.70407   0.07402   0.11840
H          H       0.71416   0.08023   0.11960   0.09816
H          H       0.65210   0.76239   0.95105   0.14654
H          H       0.01843   0.90693   0.67758   0.09839
H          H       0.02927   0.13580   0.65079   0.12459
H          H       0.61139   0.21393   0.66610   0.14000
H          H       0.61943   0.98144   0.69106   0.12277
H          H       0.84492   0.32262   0.50183   0.12020
H          H       0.29639   0.30638   0.42768   0.11847
H          H       0.91969   0.28472   0.38154   0.09762
H          H       0.23751   0.34798   0.55043   0.14614
H          H       0.90557   0.01960   0.17783   0.09801
H          H       0.13460   0.03059   0.15042   0.12544
H          H       0.21358   0.61361   0.16686   0.14122
H          H       0.98108   0.62122   0.19241   0.12271
H          H       0.32267   0.84553   0.00101   0.11992
H          H       0.30683   0.29595   0.92600   0.11852
H          H       0.28582   0.91979   0.88041   0.09825
H          H       0.34791   0.23762   0.04896   0.14649
H          H       0.98157   0.09307   0.32242   0.09845
H          H       0.97073   0.86421   0.34921   0.12463
H          H       0.38861   0.78608   0.33389   0.14001
H          H       0.38057   0.01856   0.30894   0.12280
H          H       0.15508   0.67738   0.49816   0.12016
H          H       0.70361   0.69363   0.57232   0.11848
H          H       0.08031   0.71529   0.61845   0.09760
H          H       0.76249   0.65203   0.44956   0.14619
H          H       0.52541   0.47332   0.74828   0.11304
H          H       0.16288   0.83786   0.75001   0.11477
H          H       0.47460   0.52662   0.25171   0.11303
H          H       0.83716   0.16211   0.25000   0.11442
C          C       0.02323   0.06773   0.82651   0.09947
C          C       0.89515   0.06230   0.84164  -0.19158
C          C       0.80606   0.17730   0.84453   0.08504
C          C       0.85074   0.29358   0.83223  -0.18689
C          C       0.65983   0.96452   0.96541   0.07121
C          C       0.47172   0.68005   0.74726   0.00163
C          C       0.36749   0.78417   0.74956  -0.06882
C          C       0.38324   0.92203   0.75611   0.55607
C          C       0.98145   0.29047   0.81823   0.09472
C          C       0.67985   0.05399   0.01355  -0.18953
C          C       0.68778   0.80248   0.05490   0.08740
C          C       0.70092   0.01275   0.08064   0.09455
C          C       0.66495   0.83572   0.98699  -0.17822
C          C       0.60848   0.70203   0.73818   0.57070
C          C       0.93089   0.97790   0.67304   0.09848
C          C       0.93622   0.10592   0.65835  -0.19289
C          C       0.82094   0.19476   0.65537   0.08518
C          C       0.70447   0.14982   0.66710  -0.18778
C          C       0.03501   0.34051   0.53571   0.06986
C          C       0.31835   0.52871   0.75151  -0.00220
C          C       0.21461   0.63369   0.75019  -0.06704
C          C       0.07529   0.62078   0.74468   0.55504
C          C       0.70776   0.01916   0.68063   0.09656
C          C       0.94565   0.31999   0.48746  -0.18915
C          C       0.19770   0.31168   0.44655   0.08761
C          C       0.98727   0.29830   0.42050   0.09381
C          C       0.16418   0.33499   0.51436  -0.17658
C          C       0.29658   0.39210   0.76082   0.57111
C          C       0.97676   0.93227   0.17350   0.09959
C          C       0.10484   0.93771   0.15837  -0.19167
C          C       0.19392   0.82271   0.15548   0.08505
C          C       0.14925   0.70643   0.16777  -0.18698
C          C       0.34018   0.03549   0.03460   0.07120
C          C       0.52830   0.31989   0.25273   0.00122
C          C       0.63254   0.21576   0.25046  -0.06849
C          C       0.61679   0.07788   0.24397   0.55602
C          C       0.01855   0.70953   0.18177   0.09483
C          C       0.32016   0.94602   0.98646  -0.18969
C          C       0.31222   0.19753   0.94512   0.08727
C          C       0.29907   0.98726   0.91937   0.09450
C          C       0.33506   0.16429   0.01302  -0.17805
C          C       0.39154   0.29795   0.26180   0.57073
C          C       0.06911   0.02211   0.32696   0.09851
C          C       0.06378   0.89409   0.34165  -0.19302
C          C       0.17906   0.80525   0.34462   0.08527
C          C       0.29553   0.85019   0.33290  -0.18795
C          C       0.96500   0.65949   0.46429   0.06993
C          C       0.68166   0.47126   0.24848  -0.00198
C          C       0.78540   0.36629   0.24979  -0.06711
C          C       0.92472   0.37921   0.25530   0.55516
C          C       0.29224   0.98085   0.31937   0.09641
C          C       0.05435   0.68001   0.51254  -0.18906
C          C       0.80230   0.68832   0.55345   0.08756
C          C       0.01273   0.70171   0.57949   0.09373
C          C       0.83583   0.66501   0.48563  -0.17657
C          C       0.70342   0.60787   0.23917   0.57084
C          C       0.44521   0.55396   0.74898  -0.15503
C          C       0.24265   0.75774   0.74992  -0.11764
C          C       0.55481   0.44599   0.25100  -0.15467
C          C       0.75737   0.24222   0.25009  -0.11758
S          S       0.63871   0.18481   0.86300   0.03029
S          S       0.62111  -0.00297   0.87901   0.12574
S          S       0.81336   0.36205   0.63746   0.03089
S          S       0.00160   0.37981   0.62196   0.12426
S          S       0.36127   0.81520   0.13700   0.03015
S          S       0.37889   0.00298   0.12101   0.12589
S          S       0.18664   0.63796   0.36253   0.03077
S          S      -0.00160   0.62020   0.37803   0.12428
N          N       0.06711   0.17933   0.81482  -0.22865
N          N       0.70472   0.88936   0.10176  -0.25775
N          N       0.81914   0.93372   0.68416  -0.22790
N          N       0.11091   0.29443   0.39950  -0.25732
N          N       0.93288   0.82067   0.18519  -0.22887
N          N       0.29527   0.11066   0.89826  -0.25766
N          N       0.18086   0.06628   0.31584  -0.22767
N          N       0.88909   0.70557   0.60049  -0.25729
O          O       0.49253   0.95064   0.76088  -0.54441
O          O       0.27473   0.00255   0.76018  -0.57795
O          O       0.64379   0.72550   0.67643  -0.55327
O          O       0.68729   0.69298   0.78623  -0.54380
O          O       0.04361   0.51289   0.74052  -0.54705
O          O       0.99584   0.73011   0.74077  -0.57591
O          O       0.27336   0.35673   0.82257  -0.55084
O          O       0.30622   0.31278   0.71311  -0.54587
O          O       0.50748   0.04935   0.23911  -0.54451
O          O       0.72526  -0.00273   0.24001  -0.57809
O          O       0.35621   0.27450   0.32356  -0.55336
O          O       0.31273   0.30701   0.21375  -0.54373
O          O       0.95639   0.48710   0.25948  -0.54694
O          O       0.00418   0.26988   0.25922  -0.57604
O          O       0.72665   0.64325   0.17743  -0.55060
O          O       0.69377   0.68719   0.28689  -0.54585

