data_crystal

_audit_creation_method 'AiiDA-DDEC plugin'

_cell_length_a        12.74355
_cell_length_b        13.38854
_cell_length_c        15.07483

_cell_angle_alpha     116.53560
_cell_angle_beta     115.44539
_cell_angle_gamma     89.75607

_symmetry_space_group_name_Hall 'P 1'
_symmetry_space_group_name_H-M  'P 1'

loop_
_symmetry_equiv_pos_as_xyz
 'x,y,z'

loop_
_atom_site_label
_atom_site_type_symbol
_atom_site_fract_x
_atom_site_fract_y
_atom_site_fract_z
_atom_site_charge
Sm         Sm      0.45414   0.27510   0.68458   1.87135
Sm         Sm      0.77423   0.72536   0.31588   1.87205
Sm         Sm      0.27234   0.59276   0.31732   1.87178
Sm         Sm      0.95435   0.40710   0.68298   1.87264
Zn         Zn      0.14118   0.49965  -0.00023   1.00205
Zn         Zn      0.64510   0.50010   0.00006   0.99904
H          H       0.08257   0.82035   0.01359   0.11694
H          H       0.29747   0.91762   0.36441   0.14116
H          H       0.23023   0.17817   0.26691   0.14325
H          H       0.33490   0.40200   0.96816   0.12204
H          H       0.31624   0.04038   0.80189   0.13879
H          H       0.32517   0.20234   0.12564   0.12991
H          H       0.06696   0.17906   0.98517   0.11663
H          H       0.93547   0.08066   0.63491   0.14060
H          H       0.96440   0.82104   0.73322   0.14393
H          H       0.36680   0.59885   0.03332   0.12197
H          H       0.51541   0.96026   0.19970   0.13887
H          H       0.19914   0.79775   0.87388   0.13000
H          H       0.56755   0.80631   0.98538   0.11711
H          H       0.43612   0.55325   0.63524   0.14181
H          H       0.46278   0.91116   0.73283   0.14458
H          H       0.86878   0.43448   0.03431   0.12207
H          H       0.01639   0.23923   0.20083   0.13843
H          H       0.70057   0.07663   0.87474   0.12977
H          H       0.58305   0.19395   0.01325   0.11691
H          H       0.80020   0.44710   0.36434   0.14181
H          H       0.72848   0.08891   0.26579   0.14300
H          H       0.83506   0.56508   0.96636   0.12164
H          H       0.81692   0.76015   0.80085   0.13950
H          H       0.82594   0.92288   0.12508   0.12980
C          C       0.32198   0.41601   0.14851   0.59494
C          C       0.13471   0.88541   0.10176  -0.13064
C          C       0.27007   0.05681   0.32879  -0.01949
C          C       0.18632   0.85545   0.18606  -0.04772
C          C       0.25515   0.94096   0.29891  -0.07028
C          C       0.17693   0.73392   0.16062   0.63499
C          C       0.21819   0.08813   0.24499  -0.12039
C          C       0.15260   0.00199   0.13122   0.14527
C          C       0.34300   0.14082   0.45159   0.56097
C          C       0.34329   0.23610   0.79027   0.55429
C          C       0.32920   0.32055   0.96735  -0.08620
C          C       0.32607   0.31309   0.05585  -0.03472
C          C       0.32818   0.22310   0.87723  -0.01851
C          C       0.31975   0.11692   0.87320  -0.12410
C          C       0.32563   0.20860   0.05632  -0.12419
C          C       0.32087   0.11013   0.96370   0.14988
C          C       0.17326   0.58428   0.85242   0.59256
C          C       0.03195   0.11381   0.89728  -0.13095
C          C       0.94349   0.94223   0.67097  -0.01792
C          C       0.00048   0.14380   0.81322  -0.04621
C          C       0.95797   0.05810   0.70073  -0.07163
C          C       0.01769   0.26568   0.83955   0.63365
C          C       0.97394   0.91098   0.75461  -0.12222
C          C       0.02083   0.99728   0.86813   0.14781
C          C       0.89632   0.85834   0.54851   0.55981
C          C       0.55529   0.76419   0.21123   0.55500
C          C       0.36221   0.68034   0.03417  -0.08780
C          C       0.27012   0.68755   0.94497  -0.03204
C          C       0.45177   0.77767   0.12462  -0.01893
C          C       0.44725   0.88370   0.12822  -0.12409
C          C       0.26919   0.79173   0.94387  -0.12447
C          C       0.35746   0.89017   0.03686   0.15109
C          C       0.67456   0.26735   0.85237   0.59336
C          C       0.53222   0.78336   0.89741  -0.13181
C          C       0.44326   0.72793   0.67107  -0.01862
C          C       0.50093   0.66909   0.81333  -0.04431
C          C       0.45831   0.64190   0.70078  -0.07189
C          C       0.51800   0.57337   0.83939   0.63301
C          C       0.47314   0.84294   0.75456  -0.12222
C          C       0.52045   0.87056   0.86808   0.14708
C          C       0.39589   0.69008   0.54899   0.55918
C          C       0.05498   0.44796   0.21257   0.55509
C          C       0.86347   0.35368   0.03469  -0.08824
C          C       0.77162   0.25728   0.94540  -0.03385
C          C       0.95284   0.34689   0.12544  -0.01712
C          C       0.94871   0.24453   0.12917  -0.12332
C          C       0.77076   0.15232   0.94481  -0.12272
C          C       0.85901   0.14673   0.03781   0.15048
C          C       0.82379   0.73260   0.14794   0.59266
C          C       0.63519   0.21693   0.10139  -0.13137
C          C       0.77072   0.27242   0.32835  -0.01814
C          C       0.68780   0.33115   0.18572  -0.04589
C          C       0.75687   0.35843   0.29860  -0.07195
C          C       0.67923   0.42682   0.15977   0.63443
C          C       0.71774   0.15739   0.24445  -0.12194
C          C       0.65228   0.12976   0.13073   0.14723
C          C       0.84398   0.31044   0.45087   0.56111
C          C       0.84281   0.55211   0.78866   0.55365
C          C       0.82949   0.64593   0.96598  -0.08634
C          C       0.82701   0.74235   0.05493  -0.03418
C          C       0.82779   0.65276   0.87565  -0.01869
C          C       0.82006   0.75520   0.87202  -0.12439
C          C       0.82643   0.84732   0.05545  -0.12311
C          C       0.82175   0.85301   0.96298   0.15043
N          N       0.11102   0.03996   0.05091  -0.11587
N          N       0.31592  -0.00070   0.95307  -0.11153
N          N       0.05890   0.95947   0.94855  -0.11908
N          N       0.36289   0.00079   0.04710  -0.11067
N          N       0.55861   0.98904   0.94818  -0.11804
N          N       0.86430   0.04611   0.04770  -0.11251
N          N       0.61004   0.01131   0.05058  -0.11603
N          N       0.81735   0.95371   0.95330  -0.11029
O          O       0.35355   0.42404   0.24334  -0.53987
O          O       0.28449   0.50110   0.13217  -0.66838
O          O       0.33893   0.24691   0.49347  -0.60974
O          O       0.40868   0.10200   0.51551  -0.58666
O          O       0.11435   0.65455   0.05736  -0.55004
O          O       0.23387   0.71633   0.24310  -0.64332
O          O       0.34959   0.14971   0.71016  -0.57887
O          O       0.35844   0.33685   0.80139  -0.62488
O          O       0.10904   0.57546   0.75712  -0.54103
O          O       0.15318   0.49963   0.86929  -0.66576
O          O       0.84941   0.75236   0.50571  -0.60859
O          O       0.90103   0.89703   0.48583  -0.58771
O          O       0.05718   0.34462   0.94274  -0.54766
O          O       0.99481   0.28412   0.75819  -0.64497
O          O       0.64196   0.85060   0.29210  -0.58040
O          O       0.56057   0.66314   0.19894  -0.62428
O          O       0.60946   0.18035   0.75778  -0.54006
O          O       0.65488   0.36906   0.86819  -0.66635
O          O       0.34952   0.75463   0.50758  -0.60931
O          O       0.39969   0.58844   0.48519  -0.58492
O          O       0.56033   0.59804   0.94291  -0.54996
O          O       0.49206   0.47289   0.75751  -0.64358
O          O       0.14252   0.44316   0.29359  -0.58110
O          O       0.05803   0.53712   0.20076  -0.62447
O          O       0.85378   0.81984   0.24230  -0.54033
O          O       0.78849   0.63114   0.13246  -0.66526
O          O       0.83829   0.24596   0.49180  -0.61091
O          O       0.91134   0.41228   0.51536  -0.58550
O          O       0.61691   0.40230   0.05624  -0.55065
O          O       0.73656   0.52696   0.24179  -0.64218
O          O       0.84678   0.55687   0.70722  -0.57868
O          O       0.86021   0.46330   0.80094  -0.62542

