data_crystal

_audit_creation_method 'AiiDA-DDEC plugin'

_cell_length_a        13.91957
_cell_length_b        13.92401
_cell_length_c        16.71181

_cell_angle_alpha     70.68371
_cell_angle_beta     70.64099
_cell_angle_gamma     74.10642

_symmetry_space_group_name_Hall 'P 1'
_symmetry_space_group_name_H-M  'P 1'

loop_
_symmetry_equiv_pos_as_xyz
 'x,y,z'

loop_
_atom_site_label
_atom_site_type_symbol
_atom_site_fract_x
_atom_site_fract_y
_atom_site_fract_z
_atom_site_charge
Mn         Mn      0.49994   0.49994   0.00004   0.90715
Zn         Zn      0.07221   0.07218   0.46515   0.84556
Zn         Zn      0.92779   0.92782   0.53485   0.84542
H          H       0.20371   0.80917   0.07764   0.14006
H          H       0.44197   0.60402   0.29057   0.13455
H          H       0.20323   0.61521   0.27663   0.12196
H          H       0.09875   0.72250   0.38083   0.12485
H          H       0.29312   0.95019   0.24481   0.11906
H          H       0.39774   0.84370   0.13845   0.11253
H          H       0.65107   0.24718   0.48457   0.13263
H          H       0.18992   0.79532   0.92307   0.13954
H          H       0.39658   0.55834   0.70910   0.13397
H          H       0.38478   0.79695   0.72332   0.12189
H          H       0.27748   0.90125   0.61917   0.12505
H          H       0.04982   0.70684   0.75520   0.11901
H          H       0.15637   0.60231   0.86143   0.11253
H          H       0.75278   0.34890   0.51560   0.12899
H          H       0.79629   0.19083   0.92236   0.14027
H          H       0.55803   0.39598   0.70943   0.13475
H          H       0.79677   0.38479   0.72337   0.12177
H          H       0.90125   0.27749   0.61917   0.12481
H          H       0.70688   0.04981   0.75519   0.11919
H          H       0.60226   0.15629   0.86155   0.11248
H          H       0.34893   0.75282   0.51543   0.13249
H          H       0.81008   0.20467   0.07692   0.13948
H          H       0.60343   0.44165   0.29090   0.13383
H          H       0.61522   0.20304   0.27668   0.12208
H          H       0.72252   0.09875   0.38082   0.12502
H          H       0.95018   0.29316   0.24479   0.11887
H          H       0.84363   0.39768   0.13857   0.11248
H          H       0.24722   0.65110   0.48440   0.12898
H          H       0.21501   0.21500   0.32200   0.10757
H          H       0.33000   0.32998   0.31782   0.14263
H          H       0.23997   0.23998   0.60106   0.14592
H          H       0.12854   0.12853   0.59437   0.10970
H          H       0.78499   0.78499   0.67800   0.10739
H          H       0.67000   0.67001   0.68218   0.14261
H          H       0.76003   0.76001   0.39894   0.14610
H          H       0.87146   0.87147   0.40563   0.11402
C          C       0.25107   0.75574   0.03895  -0.16519
C          C       0.33584   0.67681   0.06256   0.17810
C          C       0.36691   0.65857   0.13866  -0.06733
C          C       0.44833   0.58076   0.16262   0.17748
C          C       0.47889   0.56066   0.24168  -0.16434
C          C       0.30619   0.72352   0.20057   0.07645
C          C       0.22209   0.68913   0.26894  -0.14436
C          C       0.16372   0.74880   0.32718  -0.08406
C          C       0.18937   0.84305   0.31832  -0.04159
C          C       0.27393   0.87721   0.25031  -0.09369
C          C       0.33199   0.81786   0.19148  -0.15123
C          C       0.12583   0.90595   0.38206   0.58318
C          C       0.45942   0.30775   0.46596   0.41966
C          C       0.61828   0.32549   0.49141  -0.09068
C          C       0.51758   0.36929   0.48239  -0.08912
C          C       0.24406   0.74872   0.96127  -0.16290
C          C       0.32409   0.66505   0.93684   0.17709
C          C       0.34181   0.63354   0.86103  -0.06689
C          C       0.41922   0.55168   0.83736   0.17794
C          C       0.43937   0.52097   0.75833  -0.16481
C          C       0.27656   0.69394   0.79934   0.07711
C          C       0.31085   0.77806   0.73102  -0.14453
C          C       0.25118   0.83633   0.67281  -0.08427
C          C       0.15693   0.81063   0.68168  -0.04227
C          C       0.12282   0.72606   0.74967  -0.09324
C          C       0.18222   0.66804   0.80842  -0.15179
C          C       0.09403   0.87412   0.61796   0.58325
C          C       0.69239   0.54070   0.53371   0.41985
C          C       0.67454   0.38177   0.50856  -0.08687
C          C       0.63093   0.48266   0.51712  -0.09054
C          C       0.74894   0.24426   0.96105  -0.16505
C          C       0.66415   0.32318   0.93743   0.17828
C          C       0.63309   0.34143   0.86133  -0.06759
C          C       0.55167   0.41924   0.83737   0.17771
C          C       0.52111   0.43933   0.75831  -0.16412
C          C       0.69381   0.27648   0.79943   0.07670
C          C       0.77791   0.31087   0.73106  -0.14446
C          C       0.83629   0.25120   0.67281  -0.08397
C          C       0.81063   0.15695   0.68168  -0.04171
C          C       0.72607   0.12278   0.74969  -0.09343
C          C       0.66801   0.18213   0.80851  -0.15136
C          C       0.87417   0.09404   0.61794   0.58296
C          C       0.54058   0.69225   0.53403   0.41995
C          C       0.38172   0.67450   0.50858  -0.09076
C          C       0.48242   0.63070   0.51761  -0.08917
C          C       0.75594   0.25127   0.03873  -0.16292
C          C       0.67590   0.33494   0.06316   0.17727
C          C       0.65819   0.36646   0.13897  -0.06706
C          C       0.58077   0.44831   0.16263   0.17792
C          C       0.56063   0.47903   0.24167  -0.16478
C          C       0.72345   0.30605   0.20065   0.07712
C          C       0.68915   0.22193   0.26897  -0.14455
C          C       0.74882   0.16366   0.32719  -0.08411
C          C       0.84307   0.18937   0.31832  -0.04236
C          C       0.87718   0.27393   0.25033  -0.09320
C          C       0.81779   0.33195   0.19157  -0.15180
C          C       0.90597   0.12587   0.38203   0.58334
C          C       0.30761   0.45929   0.46628   0.41965
C          C       0.32546   0.61823   0.49144  -0.08671
C          C       0.36907   0.51734   0.48287  -0.09063
C          C       0.22291   0.22289   0.38207   0.09922
C          C       0.28630   0.28628   0.37987  -0.19618
C          C       0.29250   0.29249   0.45950   0.25365
C          C       0.23585   0.23585   0.53839  -0.19623
C          C       0.17438   0.17437   0.53498   0.11487
C          C       0.47103   0.47105   0.49137   0.02728
C          C       0.77709   0.77711   0.61793   0.09918
C          C       0.71370   0.71371   0.62013  -0.19629
C          C       0.70751   0.70750   0.54049   0.25368
C          C       0.76415   0.76414   0.46161  -0.19651
C          C       0.82562   0.82562   0.46502   0.11214
C          C       0.52897   0.52895   0.50862   0.02703
N          N       0.16791   0.16789   0.45810  -0.20189
N          N       0.35620   0.35619   0.46252  -0.23710
N          N       0.83209   0.83211   0.54189  -0.20258
N          N       0.64380   0.64380   0.53747  -0.23710
N          N       0.38044   0.62174  -0.00076  -0.40509
N          N       0.61955   0.37824   0.00077  -0.40543
N          N       0.51134   0.51125   0.11452  -0.40373
N          N       0.48864   0.48873   0.88549  -0.40432
O          O       0.15721   0.98614   0.37710  -0.54168
O          O       0.04533   0.87283   0.43637  -0.56697
O          O       0.49355   0.21941   0.45645  -0.44947
O          O       0.01381   0.84277   0.62291  -0.54192
O          O       0.12718   0.95457   0.56366  -0.56705
O          O       0.78070   0.50657   0.54333  -0.44948
O          O       0.84279   0.01386   0.62290  -0.54147
O          O       0.95467   0.12717   0.56362  -0.56666
O          O       0.50645   0.78059   0.54354  -0.44991
O          O       0.98619   0.15723   0.37708  -0.54214
O          O       0.87282   0.04543   0.43634  -0.56723
O          O       0.21930   0.49342   0.45667  -0.44940

