data_crystal

_audit_creation_method 'AiiDA-DDEC plugin'

_cell_length_a        12.08004
_cell_length_b        12.35950
_cell_length_c        19.28403

_cell_angle_alpha     92.19470
_cell_angle_beta     95.82186
_cell_angle_gamma     117.81484

_symmetry_space_group_name_Hall 'P 1'
_symmetry_space_group_name_H-M  'P 1'

loop_
_symmetry_equiv_pos_as_xyz
 'x,y,z'

loop_
_atom_site_label
_atom_site_type_symbol
_atom_site_fract_x
_atom_site_fract_y
_atom_site_fract_z
_atom_site_charge
Cd         Cd      0.75847   0.50465   0.76216   1.00002
Cd         Cd      0.58606   0.66912   0.69860   0.94719
Cd         Cd      0.42962   0.32650   0.80294   0.95371
Cd         Cd      0.24152   0.49535   0.23784   1.00014
Cd         Cd      0.41393   0.33088   0.30140   0.94712
Cd         Cd      0.57038   0.67350   0.19706   0.95375
H          H       0.71082   0.52214   0.97346   0.12558
H          H       0.69451   0.56219   0.09966   0.09850
H          H       0.08517   0.32547   0.78651   0.12591
H          H       0.22102   0.66005   0.68466   0.12687
H          H       0.73110   0.15379   0.68744   0.12726
H          H       0.44751   0.97766   0.82237   0.12123
H          H       0.44348   0.77817   0.78515   0.09060
H          H       0.71661   0.94764   0.65613   0.08740
H          H       0.87960   0.32988   0.78739   0.09494
H          H       0.01577   0.65898   0.69698   0.09574
H          H       0.95900   0.00486   0.66903   0.12117
H          H       0.09777   0.85618   0.83367   0.13147
H          H       0.16551   0.20043   0.69381   0.09581
H          H       0.29794   0.05832   0.85282   0.08812
H          H       0.29183   0.23818   0.56222   0.12445
H          H       0.68651   0.48481   0.55743   0.12455
H          H       0.64387   0.44625   0.42589   0.10224
H          H       0.26250   0.22061   0.43026   0.09823
H          H       0.53857   0.75101   0.92191   0.12161
H          H       0.51749   0.77181   0.04951   0.09529
H          H       0.28917   0.47786   0.02654   0.12566
H          H       0.30549   0.43781   0.90034   0.09853
H          H       0.91482   0.67453   0.21349   0.12601
H          H       0.77897   0.33994   0.31534   0.12697
H          H       0.26889   0.84621   0.31256   0.12735
H          H       0.55248   0.02234   0.17763   0.12111
H          H       0.55651   0.22182   0.21485   0.09051
H          H       0.28338   0.05236   0.34387   0.08755
H          H       0.12039   0.67012   0.21261   0.09523
H          H       0.98422   0.34101   0.30302   0.09576
H          H       0.04099   0.99514   0.33097   0.12101
H          H       0.90222   0.14382   0.16633   0.13146
H          H       0.83448   0.79956   0.30619   0.09594
H          H       0.70205   0.94167   0.14718   0.08821
H          H       0.70817   0.76182   0.43778   0.12436
H          H       0.31348   0.51518   0.44257   0.12473
H          H       0.35612   0.55375   0.57411   0.10244
H          H       0.73750   0.77939   0.56973   0.09799
H          H       0.46142   0.24899   0.07809   0.12156
H          H       0.48250   0.22819   0.95049   0.09523
C          C       0.17076   0.49387   0.73640  -0.00499
C          C       0.29649   0.49662   0.73738   0.56938
C          C       0.67027   0.58023   0.98860  -0.14658
C          C       0.62533   0.63342   0.93715  -0.00407
C          C       0.62806   0.60878   0.86151   0.56896
C          C       0.89038   0.79621   0.73860   0.56834
C          C       0.51324   0.38800   0.64771   0.57302
C          C       0.66043   0.60107   0.05827   0.06089
C          C       0.07211   0.39970   0.76539  -0.15808
C          C       0.01212   0.91531   0.75016   0.00611
C          C       0.59848   0.20348   0.77900   0.56912
C          C       0.14837   0.58686   0.70896  -0.15805
C          C       0.59141   0.08182   0.75842   0.00802
C          C       0.66734   0.07246   0.71044  -0.15170
C          C       0.50866   0.97404   0.78574  -0.15422
C          C       0.50591   0.86378   0.76515   0.07879
C          C       0.65880   0.95862   0.69266   0.07301
C          C       0.95909   0.40256   0.76710   0.06259
C          C       0.03423   0.58579   0.71476   0.06274
C          C       0.03216   0.01374   0.71011  -0.15705
C          C       0.10993   0.93099   0.80213  -0.15093
C          C       0.14607   0.12210   0.72376   0.07711
C          C       0.22036   0.04246   0.81275   0.07285
C          C       0.49228   0.36396   0.57025  -0.00432
C          C       0.37157   0.28624   0.53369  -0.14915
C          C       0.59239   0.42298   0.53080  -0.14652
C          C       0.56900   0.40321   0.45837   0.06627
C          C       0.35502   0.27484   0.46098   0.05490
C          C       0.57275   0.70692   0.95990  -0.14763
C          C       0.56238   0.71992   0.03043   0.05677
C          C       0.82923   0.50613   0.26360  -0.00498
C          C       0.70350   0.50338   0.26262   0.56930
C          C       0.32973   0.41977   0.01140  -0.14656
C          C       0.37466   0.36658   0.06285  -0.00418
C          C       0.37193   0.39122   0.13849   0.56899
C          C       0.10961   0.20379   0.26140   0.56859
C          C       0.48675   0.61199   0.35229   0.57307
C          C       0.33956   0.39893   0.94173   0.06119
C          C       0.92788   0.60030   0.23461  -0.15816
C          C       0.98787   0.08469   0.24984   0.00615
C          C       0.40151   0.79652   0.22099   0.56907
C          C       0.85163   0.41314   0.29104  -0.15786
C          C       0.40858   0.91818   0.24157   0.00802
C          C       0.33265   0.92754   0.28956  -0.15159
C          C       0.49133   0.02596   0.21426  -0.15417
C          C       0.49408   0.13622   0.23485   0.07864
C          C       0.34119   0.04138   0.30734   0.07304
C          C       0.04091   0.59744   0.23290   0.06203
C          C       0.96576   0.41421   0.28524   0.06283
C          C       0.96784   0.98626   0.28989  -0.15712
C          C       0.89006   0.06901   0.19787  -0.15102
C          C       0.85393   0.87790   0.27624   0.07699
C          C       0.77963   0.95753   0.18725   0.07294
C          C       0.50771   0.63604   0.42975  -0.00431
C          C       0.62842   0.71375   0.46631  -0.14941
C          C       0.40760   0.57702   0.46920  -0.14634
C          C       0.43099   0.59679   0.54163   0.06610
C          C       0.64497   0.72516   0.53902   0.05503
C          C       0.42725   0.29307   0.04010  -0.14752
C          C       0.43761   0.28008   0.96957   0.05659
N          N       0.57983   0.85520   0.71946  -0.24541
N          N       0.93974   0.49544   0.74352  -0.26612
N          N       0.23905   0.13758   0.77470  -0.24616
N          N       0.45181   0.33183   0.42320  -0.25854
N          N       0.60534   0.66796   0.07974  -0.26354
N          N       0.42017   0.14479   0.28054  -0.24541
N          N       0.06025   0.50456   0.25648  -0.26652
N          N       0.76094   0.86241   0.22530  -0.24596
N          N       0.54818   0.66817   0.57680  -0.25847
N          N       0.39466   0.33203   0.92026  -0.26358
O          O       0.61796   0.68114   0.81975  -0.54563
O          O       0.61327   0.48967   0.67358  -0.63667
O          O       0.36810   0.56269   0.69489  -0.57600
O          O       0.63808   0.51096   0.84375  -0.63097
O          O       0.52699   0.20587   0.82269  -0.57369
O          O       0.31957   0.43370   0.78181  -0.58298
O          O       0.80431   0.78826   0.69155  -0.57531
O          O       0.43384   0.31227   0.68275  -0.53705
O          O       0.88603   0.71318   0.77737  -0.57594
O          O       0.67674   0.29454   0.75035  -0.57959
O          O       0.38203   0.31886   0.18025  -0.54568
O          O       0.38672   0.51032   0.32642  -0.63649
O          O       0.63189   0.43731   0.30511  -0.57586
O          O       0.36191   0.48903   0.15625  -0.63088
O          O       0.47301   0.79412   0.17731  -0.57378
O          O       0.68043   0.56630   0.21819  -0.58292
O          O       0.19568   0.21173   0.30845  -0.57561
O          O       0.56615   0.68772   0.31725  -0.53724
O          O       0.11396   0.28682   0.22263  -0.57591
O          O       0.32325   0.70545   0.24965  -0.57950

