data_crystal

_audit_creation_method 'AiiDA-DDEC plugin'

_cell_length_a         7.44913
_cell_length_b        15.89429
_cell_length_c        17.31832

_cell_angle_alpha     90.64716
_cell_angle_beta     94.54443
_cell_angle_gamma     90.62219

_symmetry_space_group_name_Hall 'P 1'
_symmetry_space_group_name_H-M  'P 1'

loop_
_symmetry_equiv_pos_as_xyz
 'x,y,z'

loop_
_atom_site_label
_atom_site_type_symbol
_atom_site_fract_x
_atom_site_fract_y
_atom_site_fract_z
_atom_site_charge
Eu         Eu      0.64704   0.89096   0.54784   1.65789
Eu         Eu      0.84114   0.05918   0.39195   1.59962
Eu         Eu      0.37760   0.39054   0.95820   1.69450
Eu         Eu      0.13634   0.55159   0.10021   1.67293
Eu         Eu      0.35440   0.10951   0.44957   1.66824
Eu         Eu      0.16015   0.94153   0.60735   1.59763
Eu         Eu      0.63217   0.60948   0.04595   1.71282
Eu         Eu      0.85816   0.44613   0.90442   1.67613
H          H       0.20615   0.69876   0.32276   0.16016
H          H       0.83309   0.76410   0.41264   0.09228
H          H       0.20253   0.82406   0.20788   0.15775
H          H       0.61150   0.92968   0.26328   0.09632
H          H       0.79556   0.19792   0.17860   0.15692
H          H       0.17415   0.26687   0.08860   0.09668
H          H       0.79790   0.32380   0.29305   0.15692
H          H       0.38793   0.43056   0.23549   0.09543
H          H       0.79213   0.30121   0.67714   0.15954
H          H       0.16589   0.23561   0.58656   0.09106
H          H       0.79942   0.17691   0.79336   0.15849
H          H       0.39049   0.07192   0.73686   0.09865
H          H       0.21011   0.80101   0.82445   0.15779
H          H       0.83506   0.73532   0.91012   0.10132
H          H       0.19838   0.67470   0.70949   0.15628
H          H       0.60271   0.57030   0.76412   0.10281
C          C       0.25177   0.81236   0.45409   0.56507
C          C       0.38987   0.76942   0.40583   0.16205
C          C       0.34543   0.71512   0.34254  -0.18824
C          C       0.49006   0.68420   0.30387   0.16625
C          C       0.46113   0.63411   0.22775   0.58012
C          C       0.69337   0.75099   0.39090   0.24523
C          C       0.21225   0.95511   0.31890   0.57526
C          C       0.05280   0.91152   0.27452   0.15644
C          C       0.07038   0.84795   0.21957  -0.18802
C          C       0.91008   0.81735   0.18096   0.16556
C          C       0.91357   0.74609   0.12235   0.58196
C          C       0.74303   0.90615   0.25014   0.24129
C          C       0.75927   0.30741   0.04872   0.56236
C          C       0.61749   0.26719   0.09616   0.15095
C          C       0.65688   0.21382   0.15888  -0.18458
C          C       0.50744   0.18419   0.19550   0.15723
C          C       0.53119   0.13069   0.26708   0.59143
C          C       0.31178   0.25218   0.11043   0.24372
C          C       0.78758   0.45108   0.18180   0.55936
C          C       0.94860   0.41102   0.22604   0.15148
C          C       0.92991   0.34834   0.28089  -0.18809
C          C       0.08995   0.31948   0.31907   0.15659
C          C       0.08490   0.24979   0.37796   0.59025
C          C       0.25676   0.40702   0.24942   0.24425
C          C       0.74742   0.18718   0.54628   0.56714
C          C       0.60922   0.23038   0.59414   0.15886
C          C       0.65272   0.28474   0.65755  -0.18400
C          C       0.50743   0.31508   0.69634   0.16354
C          C       0.53486   0.36411   0.77304   0.58160
C          C       0.30561   0.24878   0.60842   0.24564
C          C       0.78921   0.04448   0.68291   0.57629
C          C       0.94977   0.08898   0.72698   0.15335
C          C       0.93151   0.15301   0.78156  -0.18176
C          C       0.09211   0.18439   0.81983   0.16364
C          C       0.08673   0.25695   0.87779   0.58886
C          C       0.25917   0.09542   0.75023   0.23696
C          C       0.25055   0.68998   0.95045   0.56001
C          C       0.39240   0.73179   0.90385   0.15000
C          C       0.35027   0.78578   0.84216  -0.18158
C          C       0.49728   0.81593   0.80422   0.15540
C          C       0.47103   0.86915   0.73202   0.59182
C          C       0.69682   0.74883   0.88927   0.23842
C          C       0.20647   0.54728   0.82160   0.55851
C          C       0.04482   0.58891   0.77694   0.14942
C          C       0.06552   0.65115   0.72142  -0.18182
C          C       0.90697   0.68075   0.68216   0.15622
C          C       0.91246   0.74960   0.62176   0.58789
C          C       0.73599   0.59305   0.75187   0.23749
N          N       0.56327   0.78798   0.42839  -0.33422
N          N       0.66210   0.70120   0.32883  -0.24865
N          N       0.88873   0.93811   0.29171  -0.34470
N          N       0.74790   0.84790   0.19428  -0.24494
N          N       0.44546   0.28677   0.07340  -0.33153
N          N       0.33593   0.20201   0.17163  -0.26171
N          N       0.11177   0.43804   0.20853  -0.32683
N          N       0.25279   0.34985   0.30502  -0.24311
N          N       0.43572   0.21130   0.57153  -0.33404
N          N       0.33540   0.29884   0.67036  -0.25012
N          N       0.11287   0.06260   0.70940  -0.33842
N          N       0.25295   0.15421   0.80547  -0.22780
N          N       0.56369   0.71351   0.92641  -0.30870
N          N       0.66824   0.79789   0.82768  -0.24133
N          N       0.88127   0.56232   0.79352  -0.31056
N          N       0.74466   0.65051   0.69657  -0.22315
O          O       0.31836   0.84135   0.52081  -0.66354
O          O       0.09375   0.81736   0.42626  -0.46969
O          O       0.32404   0.58486   0.22170  -0.57970
O          O       0.57136   0.64850   0.17859  -0.58283
O          O       0.16681   0.01611   0.36343  -0.68423
O          O       0.36699   0.93048   0.31084  -0.44101
O          O       0.03845   0.69335   0.13654  -0.59323
O          O       0.79373   0.74430   0.06642  -0.56512
O          O       0.95550   0.96264   0.49578  -0.33669
O          O       0.56374   0.99361   0.44684  -0.66040
O          O       0.69653   0.34118   0.98430  -0.65200
O          O       0.91858   0.30599   0.07435  -0.41901
O          O       0.66586   0.08174   0.27042  -0.59669
O          O       0.42122   0.14019   0.31776  -0.59745
O          O       0.82655   0.51118   0.13624  -0.65113
O          O       0.63665   0.42203   0.19238  -0.42933
O          O       0.95541   0.19678   0.36532  -0.61758
O          O       0.20545   0.24651   0.43320  -0.59017
O          O       0.08988   0.42756   0.00587  -0.61822
O          O       0.42335   0.49511   0.05964  -0.67861
O          O       0.68116   0.15780   0.47967  -0.66583
O          O       0.90532   0.18205   0.57426  -0.46950
O          O       0.67012   0.41387   0.78060  -0.57920
O          O       0.42462   0.34937   0.82288  -0.59074
O          O       0.83182   0.98449   0.63718  -0.68003
O          O       0.63613   0.06939   0.69375  -0.44377
O          O       0.95813   0.30707   0.86184  -0.58463
O          O       0.20597   0.26130   0.93343  -0.56287
O          O       0.04249   0.03775   0.50413  -0.32493
O          O       0.43268   0.00617   0.55011  -0.67216
O          O       0.31344   0.65111   0.01153  -0.64729
O          O       0.08939   0.69532   0.92658  -0.42887
O          O       0.33687   0.91802   0.72964  -0.59793
O          O       0.57897   0.85885   0.68075  -0.59418
O          O       0.16908   0.49154   0.87146  -0.64175
O          O       0.35876   0.57050   0.80588  -0.42545
O          O       0.04069   0.80329   0.63535  -0.61738
O          O       0.79436   0.75043   0.56557  -0.58481
O          O       0.91106   0.56172   0.99763  -0.68024
O          O       0.58436   0.50547   0.94908  -0.71996

