data_crystal

_audit_creation_method 'AiiDA-DDEC plugin'

_cell_length_a        13.84745
_cell_length_b        13.86008
_cell_length_c        16.58807

_cell_angle_alpha     66.94173
_cell_angle_beta     66.90690
_cell_angle_gamma     72.07699

_symmetry_space_group_name_Hall 'P 1'
_symmetry_space_group_name_H-M  'P 1'

loop_
_symmetry_equiv_pos_as_xyz
 'x,y,z'

loop_
_atom_site_label
_atom_site_type_symbol
_atom_site_fract_x
_atom_site_fract_y
_atom_site_fract_z
_atom_site_charge
Eu         Eu      0.44128   0.15290   0.50197   1.73414
Eu         Eu      0.84667   0.55888  -0.00194   1.73583
Eu         Eu      0.55871   0.84711   0.49803   1.73417
Eu         Eu      0.15333   0.44113   0.00194   1.73586
H          H       0.65640   0.76455   0.76378   0.14423
H          H       0.63978   0.91349   0.95561   0.14236
H          H       0.54758   0.10406   0.71239   0.14400
H          H       0.86768   0.92133   0.35491   0.14386
H          H       0.23571   0.34235   0.73715   0.14448
H          H       0.08792   0.35915   0.54472   0.14315
H          H       0.89621   0.45331   0.78712   0.14395
H          H       0.07972   0.13237   0.14505   0.14146
H          H       0.34360   0.23545   0.23622   0.14430
H          H       0.36022   0.08651   0.04439   0.14238
H          H       0.45242   0.89594   0.28761   0.14394
H          H       0.13232   0.07867   0.64510   0.14388
H          H       0.76429   0.65765   0.26285   0.14459
H          H       0.91208   0.64085   0.45528   0.14321
H          H       0.10379   0.54669   0.21288   0.14382
H          H       0.92028   0.86763   0.85495   0.14110
H          H       0.74450   0.25622   0.24966   0.13858
H          H       0.25549   0.74379   0.75035   0.13851
C          C       0.58026   0.94184   0.64425   0.63125
C          C       0.69760   0.72392   0.92270   0.55202
C          C       0.59936   0.93468   0.72934  -0.03671
C          C       0.63802   0.83533   0.78448  -0.06785
C          C       0.65268   0.82781   0.86579  -0.02857
C          C       0.62886   0.91871   0.89260  -0.09594
C          C       0.59190   0.01659   0.83609   0.06641
C          C       0.57684   0.02641   0.75481  -0.10884
C          C       0.68434   0.07160   0.37440   0.63612
C          C       0.87960   0.00107   0.30940  -0.11953
C          C       0.79416   0.08755   0.30999  -0.02817
C          C       0.05822   0.41994   0.85588   0.63121
C          C       0.27709   0.30146   0.57849   0.55434
C          C       0.06553   0.40058   0.77090  -0.03482
C          C       0.16496   0.36117   0.71628  -0.06793
C          C       0.17284   0.34633   0.63502  -0.02816
C          C       0.08218   0.37036   0.60775  -0.09639
C          C       0.98412   0.40787   0.66390   0.06779
C          C       0.97397   0.42343   0.74506  -0.11154
C          C       0.93005   0.31517   0.12526   0.63812
C          C      -0.00018   0.12037   0.19052  -0.11576
C          C       0.91336   0.20583   0.18982  -0.02965
C          C       0.41973   0.05816   0.35575   0.63126
C          C       0.30240   0.27608   0.07731   0.55199
C          C       0.40063   0.06532   0.27066  -0.03651
C          C       0.36198   0.16467   0.21552  -0.06785
C          C       0.34732   0.17219   0.13421  -0.02863
C          C       0.37113   0.08129   0.10740  -0.09588
C          C       0.40810   0.98341   0.16391   0.06649
C          C       0.42316   0.97359   0.24519  -0.10902
C          C       0.31566   0.92840   0.62561   0.63618
C          C       0.12039  -0.00107   0.69060  -0.11960
C          C       0.20583   0.91245   0.69001  -0.02822
C          C       0.94178   0.58006   0.14412   0.63103
C          C       0.72291   0.69855   0.42151   0.55421
C          C       0.93447   0.59942   0.22910  -0.03457
C          C       0.83503   0.63884   0.28372  -0.06804
C          C       0.82715   0.65368   0.36499  -0.02820
C          C       0.91781   0.62964   0.39225  -0.09628
C          C       0.01588   0.59214   0.33610   0.06766
C          C       0.02602   0.57657   0.25494  -0.11165
C          C       0.06995   0.68483   0.87474   0.63818
C          C       0.00018   0.87963   0.80949  -0.11489
C          C       0.08663   0.79417   0.81018  -0.02977
C          C       0.98102   0.01929   0.25000   0.05614
C          C       0.81115   0.18942   0.24981  -0.07224
C          C       0.01898   0.98071   0.75000   0.05625
C          C       0.18884   0.81058   0.75019  -0.07247
N          N       0.56695   0.11302   0.86383   0.52656
N          N       0.88762   0.43302   0.63611   0.52681
N          N       0.43305   0.88698   0.13617   0.52671
N          N       0.11237   0.56699   0.36390   0.52696
N          N       0.07175   0.92820   0.25017   0.52556
N          N       0.92825   0.07180   0.74983   0.52526
O          O       0.73636   0.64283   0.89324  -0.54554
O          O       0.66706   0.97605   0.41267  -0.65994
O          O       0.54390   0.03478   0.59642  -0.63556
O          O       0.59952   0.85767   0.62370  -0.59744
O          O       0.61474   0.15346   0.38725  -0.62050
O          O       0.57673   0.10040   0.93882  -0.33653
O          O       0.70383   0.71500   0.00066  -0.51274
O          O       0.53704   0.19960   0.81095  -0.31834
O          O       0.16231   0.94802   0.20192  -0.33418
O          O       0.35666   0.25911   0.60989  -0.54644
O          O       0.02612   0.33119   0.08723  -0.65719
O          O       0.96521   0.45662   0.90356  -0.63750
O          O       0.14247   0.40051   0.87643  -0.59680
O          O       0.84852   0.38522   0.11214  -0.62312
O          O       0.90007   0.42314   0.56121  -0.33627
O          O       0.28745   0.29927   0.49879  -0.51535
O          O       0.80099   0.46318   0.68900  -0.31902
O          O       0.05160   0.83787   0.29849  -0.33395
O          O       0.26364   0.35717   0.10676  -0.54539
O          O       0.33293   0.02395   0.58734  -0.65986
O          O       0.45610   0.96522   0.40358  -0.63568
O          O       0.40048   0.14233   0.37631  -0.59732
O          O       0.38525   0.84654   0.61276  -0.62068
O          O       0.42326   0.89960   0.06118  -0.33658
O          O       0.29616   0.28500  -0.00066  -0.51285
O          O       0.46296   0.80040   0.18905  -0.31853
O          O       0.83768   0.05199   0.79808  -0.33385
O          O       0.64333   0.74089   0.39011  -0.54619
O          O       0.97388   0.66881   0.91277  -0.65698
O          O       0.03479   0.54338   0.09644  -0.63759
O          O       0.85753   0.59949   0.12357  -0.59656
O          O       0.15147   0.61479   0.88786  -0.62339
O          O       0.09992   0.57686   0.43879  -0.33628
O          O       0.71254   0.70074   0.50122  -0.51535
O          O       0.19900   0.53682   0.31100  -0.31927
O          O       0.94839   0.16213   0.70151  -0.33389

