data_crystal

_audit_creation_method 'AiiDA-DDEC plugin'

_cell_length_a        12.84756
_cell_length_b        13.31382
_cell_length_c        14.86551

_cell_angle_alpha     116.58338
_cell_angle_beta     115.32671
_cell_angle_gamma     89.95581

_symmetry_space_group_name_Hall 'P 1'
_symmetry_space_group_name_H-M  'P 1'

loop_
_symmetry_equiv_pos_as_xyz
 'x,y,z'

loop_
_atom_site_label
_atom_site_type_symbol
_atom_site_fract_x
_atom_site_fract_y
_atom_site_fract_z
_atom_site_charge
Tb         Tb      0.26341   0.72241   0.31144   2.00092
Tb         Tb      0.95339   0.27700   0.68784   2.00280
Tb         Tb      0.45508   0.41147   0.68837   1.99886
Tb         Tb      0.76434   0.58857   0.31118   2.00272
Zn         Zn      0.12671   0.49992   0.00026   1.01128
Zn         Zn      0.62910   0.50038   0.00047   1.01193
H          H       0.07764   0.19806   0.01957   0.11563
H          H       0.31213   0.44654   0.37353   0.14199
H          H       0.31467   0.92348   0.12247   0.12931
H          H       0.32508   0.56379   0.96526   0.12518
H          H       0.22603   0.08589   0.26991   0.14280
H          H       0.31251   0.75843   0.79685   0.14036
H          H       0.05984   0.80324   0.98253   0.11568
H          H       0.93301   0.55220   0.62714   0.14402
H          H       0.19280   0.07692   0.87781   0.12939
H          H       0.35953   0.43529   0.03122   0.12512
H          H       0.95477   0.91311   0.73003   0.14308
H          H       0.51301   0.24347   0.20331   0.14114
H          H       0.56122   0.18033   0.98181   0.11586
H          H       0.43498   0.07352   0.62583   0.14336
H          H       0.69493   0.80246   0.87885   0.12989
H          H       0.86013   0.59919   0.03567   0.12569
H          H       0.45336   0.81766   0.73125   0.14194
H          H       0.01379   0.96218   0.20548   0.14147
H          H       0.57792   0.82225   0.01875   0.11558
H          H       0.80915   0.92604   0.37307   0.14400
H          H       0.81793   0.20022   0.12397   0.12903
H          H       0.82526   0.40161   0.96477   0.12637
H          H       0.72612   0.18411   0.27044   0.14278
H          H       0.80979   0.03820   0.79558   0.14100
C          C       0.34099   0.55017   0.78869   0.56139
C          C       0.35234   0.30517   0.45819   0.56843
C          C       0.27572   0.27013   0.33513  -0.00802
C          C       0.13252   0.21883   0.10780  -0.13468
C          C       0.19021   0.33295   0.19403  -0.04540
C          C       0.26423   0.35811   0.30702  -0.07214
C          C       0.18058   0.42958   0.16822   0.63770
C          C       0.14859   0.12946   0.13493   0.14816
C          C       0.31637   0.84720   0.05285  -0.12004
C          C       0.32034   0.64471   0.96410  -0.07843
C          C       0.21679   0.15550   0.24940  -0.12679
C          C       0.31477   0.74165   0.05214  -0.03581
C          C       0.32187   0.65118   0.87343  -0.01796
C          C       0.31510   0.85261   0.96028   0.15052
C          C       0.31427   0.75377   0.86869  -0.11889
C          C       0.30650   0.73299   0.14452   0.59254
C          C       0.54988   0.45031   0.20842   0.56373
C          C       0.88812   0.69187   0.54151   0.56641
C          C       0.93689   0.72866   0.66523  -0.01191
C          C       0.02523   0.78174   0.89384  -0.13325
C          C       0.99498   0.66719   0.80750  -0.04691
C          C       0.95352   0.64111   0.69387  -0.06952
C          C       0.01114   0.57038   0.83294   0.63821
C          C       0.01362   0.87067   0.86601   0.14692
C          C       0.26347   0.15331   0.94686  -0.12181
C          C       0.35566   0.35507   0.03360  -0.08098
C          C       0.96590   0.84389   0.75107  -0.12551
C          C       0.26257   0.25830   0.94650  -0.03359
C          C       0.44694   0.34933   0.12476  -0.01693
C          C       0.35405   0.14863   0.03984   0.15219
C          C       0.44388   0.24757   0.13094  -0.12079
C          C       0.16291   0.26662   0.85387   0.59347
C          C       0.05008   0.76141   0.21272   0.56246
C          C       0.38825   0.84828   0.54170   0.56737
C          C       0.43668   0.93616   0.66508  -0.01164
C          C       0.52614   0.11277   0.89327  -0.13560
C          C       0.49685   0.14021   0.80649  -0.04502
C          C       0.45473   0.05206   0.69298  -0.07001
C          C       0.51507   0.26223   0.83157   0.63713
C          C       0.51335   0.99626   0.86613   0.14839
C          C       0.76516   0.79534   0.94843  -0.12077
C          C       0.85657   0.68129   0.03692  -0.07859
C          C       0.46497   0.90763   0.75145  -0.12569
C          C       0.76412   0.69039   0.94881  -0.03506
C          C       0.94752   0.77821   0.12803  -0.01883
C          C       0.85536   0.89311   0.04144   0.15179
C          C       0.94477   0.88573   0.13321  -0.12016
C          C       0.66464   0.58924   0.85662   0.59406
C          C       0.83882   0.23831   0.78735   0.56298
C          C       0.84955   0.15171   0.45784   0.56563
C          C       0.77407   0.06430   0.33481  -0.01218
C          C       0.63245   0.88921   0.10721  -0.13390
C          C       0.68930   0.86083   0.19329  -0.04548
C          C       0.76223   0.94825   0.30652  -0.07088
C          C       0.68034   0.73857   0.16785   0.63686
C          C       0.64843   0.00589   0.13481   0.14711
C          C       0.81821   0.20665   0.05368  -0.11962
C          C       0.82059   0.31968   0.96387  -0.08090
C          C       0.71627   0.09385   0.24934  -0.12440
C          C       0.81666   0.31139   0.05283  -0.03471
C          C       0.82058   0.22220   0.87256  -0.01675
C          C       0.81522   0.10833   0.96035   0.15129
C          C       0.81289   0.11500   0.86796  -0.12120
C          C       0.81053   0.41325   0.14595   0.59259
N          N       0.31254   0.95461   0.95194  -0.10996
N          N       0.10411   0.01051   0.05212  -0.12378
N          N       0.35991   0.04690   0.04868  -0.10958
N          N       0.05260   0.98979   0.94869  -0.12284
N          N       0.86117   0.00325   0.04950  -0.11172
N          N       0.55213   0.96008   0.94896  -0.12167
N          N       0.81286  -0.00173   0.95245  -0.10959
N          N       0.60422   0.04260   0.05235  -0.12501
O          O       0.37491   0.46978   0.81295  -0.65495
O          O       0.33296   0.54568   0.69827  -0.59910
O          O       0.11145   0.40477   0.06425  -0.54964
O          O       0.44035   0.39320   0.51888  -0.62809
O          O       0.32747   0.25316   0.50397  -0.62984
O          O       0.27535   0.63086   0.13108  -0.68564
O          O       0.32861   0.82187   0.23735  -0.55342
O          O       0.24285   0.52987   0.25002  -0.66887
O          O       0.56143   0.52777   0.18120  -0.65747
O          O       0.62946   0.45786   0.30136  -0.59939
O          O       0.04776   0.59544   0.93738  -0.54968
O          O       0.90537   0.59658   0.47806  -0.62926
O          O       0.82606   0.74924   0.49755  -0.62724
O          O       0.14307   0.36858   0.86814  -0.68737
O          O       0.09499   0.17792   0.76006  -0.55268
O          O       0.98982   0.46990   0.75029  -0.66749
O          O       0.05940   0.65662   0.18838  -0.65751
O          O       0.13168   0.84712   0.30304  -0.59821
O          O       0.55002   0.34190   0.93553  -0.55160
O          O       0.40772   0.87834   0.47808  -0.63276
O          O       0.32451   0.74811   0.49823  -0.62674
O          O       0.64857   0.50012   0.86975  -0.68229
O          O       0.59342   0.58577   0.76428  -0.55837
O          O       0.49664   0.27935   0.74901  -0.66529
O          O       0.87221   0.34292   0.81150  -0.65599
O          O       0.83080   0.15251   0.69684  -0.59944
O          O       0.61345   0.65927   0.06350  -0.54978
O          O       0.93110   0.12055   0.52095  -0.63109
O          O       0.83082   0.25289   0.50156  -0.62549
O          O       0.77787   0.50126   0.13183  -0.68401
O          O       0.83532   0.41865   0.23999  -0.55518
O          O       0.74107   0.72080   0.25057  -0.66771

