data_crystal

_audit_creation_method 'AiiDA-DDEC plugin'

_cell_length_a         7.66054
_cell_length_b        10.69742
_cell_length_c        19.23402

_cell_angle_alpha     94.22502
_cell_angle_beta     90.02497
_cell_angle_gamma     90.02131

_symmetry_space_group_name_Hall 'P 1'
_symmetry_space_group_name_H-M  'P 1'

loop_
_symmetry_equiv_pos_as_xyz
 'x,y,z'

loop_
_atom_site_label
_atom_site_type_symbol
_atom_site_fract_x
_atom_site_fract_y
_atom_site_fract_z
_atom_site_charge
Mn         Mn      0.62231   0.31632   0.97733   0.91491
Mn         Mn      0.64874   0.29413   0.76787   0.95106
Mn         Mn      0.08327   0.67698   0.51595   0.80667
Mn         Mn      0.15193   0.71179   0.73579   0.94454
Mn         Mn      0.41928   0.67832   0.01581   0.80427
Mn         Mn      0.34754   0.71172   0.23615   0.94471
Mn         Mn      0.87658   0.31566   0.47713   0.91531
Mn         Mn      0.85086   0.29371   0.26751   0.95105
H          H       0.12041   0.07166   0.58030   0.14094
H          H       0.95346   0.04056   0.63967   0.14595
H          H       0.99162   0.11130   0.76746   0.13807
H          H       0.26310   0.22651   0.84284   0.12284
H          H       0.44273   0.12119   0.63961   0.11793
H          H       0.60614   0.91642   0.91330   0.13677
H          H       0.44501   0.95149   0.85252   0.14647
H          H       0.49523   0.88849   0.72617   0.13961
H          H       0.77440   0.77868   0.65366   0.12048
H          H       0.94001   0.88884   0.85817   0.11873
H          H       0.89371   0.91686   0.41345   0.13697
H          H       0.05554   0.95079   0.35268   0.14637
H          H       0.00467   0.88737   0.22608   0.13899
H          H       0.72401   0.77930   0.15334   0.11961
H          H       0.56066   0.88760   0.35829   0.11955
H          H       0.37858   0.07130   0.08014   0.14127
H          H       0.54643   0.04168   0.13958   0.14603
H          H       0.50824   0.11145   0.26747   0.13801
H          H       0.23730   0.22674   0.34282   0.12289
H          H       0.05755   0.12223   0.13938   0.11850
C          C       0.45891   0.53114   0.74004   0.57320
C          C       0.45574   0.52955   0.81750   0.01618
C          C       0.40082   0.61358   0.87229  -0.03380
C          C       0.31517   0.73433   0.88202   0.54067
C          C       0.13834   0.89096   0.62167   0.61135
C          C       0.09418   0.03043   0.62990  -0.23033
C          C       0.12512   0.12954   0.75300  -0.09411
C          C       0.26081   0.18629   0.78957  -0.03851
C          C       0.35903   0.13496   0.68489   0.08581
C          C       0.96093   0.47363   0.76109   0.57563
C          C       0.95262   0.47552   0.68337   0.00976
C          C       0.89599   0.39145   0.62828  -0.00816
C          C       0.79774   0.27108   0.62068   0.57327
C          C       0.61560   0.10366   0.88257   0.61048
C          C       0.58361   0.96469   0.86567  -0.23370
C          C       0.62871   0.87371   0.74192  -0.09380
C          C       0.76803   0.81927   0.70675  -0.04197
C          C       0.85897   0.87357   0.81220   0.08322
C          C       0.53868   0.47390   0.26158   0.57557
C          C       0.54643   0.47631   0.18386   0.00966
C          C       0.60290   0.39262   0.12870  -0.00886
C          C       0.70239   0.27314   0.12091   0.57437
C          C       0.88442   0.10327   0.38200   0.61063
C          C       0.91678   0.96412   0.36551  -0.23372
C          C       0.87114   0.87273   0.24180  -0.09412
C          C       0.73124   0.81900   0.20659  -0.04134
C          C       0.64129   0.87259   0.31222   0.08225
C          C       0.04047   0.53103   0.24008   0.57403
C          C       0.04334   0.52944   0.31748   0.01588
C          C       0.09972   0.61291   0.37227  -0.03456
C          C       0.18793   0.73262   0.38222   0.53882
C          C       0.36277   0.89119   0.12198   0.61104
C          C       0.40575   0.03085   0.12990  -0.23061
C          C       0.37484   0.12983   0.25296  -0.09378
C          C       0.23934   0.18666   0.28953  -0.03903
C          C       0.14106   0.13561   0.18477   0.08476
N          N       0.53364   0.43271   0.84594  -0.19277
N          N       0.53286   0.45293   0.91581  -0.10379
N          N       0.45158   0.56413   0.93337  -0.21220
N          N       0.40673   0.18897   0.74678  -0.32334
N          N       0.18852   0.09838   0.68640   0.06606
N          N       0.02057   0.57645   0.65446  -0.18101
N          N       0.01046   0.55595   0.58501  -0.03079
N          N       0.93719   0.44344   0.56825  -0.23854
N          N       0.91170   0.81978   0.75093  -0.32777
N          N       0.68771   0.90706   0.80885   0.07046
N          N       0.47793   0.57715   0.15503  -0.18043
N          N       0.48750   0.55680   0.08555  -0.03097
N          N       0.56107   0.44451   0.06869  -0.23751
N          N       0.58790   0.81944   0.25089  -0.32697
N          N       0.81269   0.90578   0.30883   0.07038
N          N       0.96457   0.43292   0.34589  -0.19226
N          N       0.96597   0.45288   0.41576  -0.10324
N          N       0.04906   0.56342   0.43337  -0.21261
N          N       0.09347   0.18953   0.24667  -0.32215
N          N       0.31140   0.09880   0.18634   0.06636
O          O       0.24773   0.84372   0.66024  -0.52514
O          O       0.04892   0.83030   0.57290  -0.50989
O          O       0.54335   0.44285   0.70766  -0.54385
O          O       0.38372   0.61964   0.71141  -0.54247
O          O       0.24954   0.79399   0.83400  -0.50754
O          O       0.31603   0.77964   0.94755  -0.48466
O          O       0.72341   0.16406   0.84815  -0.55790
O          O       0.52511   0.15082   0.93440  -0.55012
O          O       0.04884   0.56189   0.79224  -0.54787
O          O       0.88593   0.38667   0.79111  -0.54516
O          O       0.75805   0.21238   0.67319  -0.52290
O          O       0.75816   0.23184   0.55752  -0.53921
O          O       0.77609   0.16300   0.34744  -0.55753
O          O       0.97485   0.15081   0.43385  -0.55101
O          O       0.45093   0.56190   0.29295  -0.54765
O          O       0.61379   0.38674   0.29135  -0.54623
O          O       0.74203   0.21318   0.17299  -0.52307
O          O       0.74323   0.23573   0.05769  -0.53951
O          O       0.25406   0.84373   0.16069  -0.52385
O          O       0.45241   0.83071   0.07324  -0.50884
O          O       0.95594   0.44272   0.20768  -0.54377
O          O       0.11600   0.61945   0.21149  -0.54326
O          O       0.25227   0.79353   0.33446  -0.50660
O          O       0.19130   0.77574   0.44804  -0.48354

