data_crystal

_audit_creation_method 'AiiDA-DDEC plugin'

_cell_length_a        11.06071
_cell_length_b        12.95714
_cell_length_c        19.39253

_cell_angle_alpha     102.77740
_cell_angle_beta     89.98469
_cell_angle_gamma     90.13433

_symmetry_space_group_name_Hall 'P 1'
_symmetry_space_group_name_H-M  'P 1'

loop_
_symmetry_equiv_pos_as_xyz
 'x,y,z'

loop_
_atom_site_label
_atom_site_type_symbol
_atom_site_fract_x
_atom_site_fract_y
_atom_site_fract_z
_atom_site_charge
Ba         Ba      0.04329   0.12144   0.10230   1.59128
Ba         Ba      0.54134   0.37829   0.39783   1.59096
Ba         Ba      0.95670   0.87856   0.89771   1.59126
Ba         Ba      0.45865   0.62171   0.60217   1.59111
Zn         Zn      0.18508   0.83558   0.02952   0.92910
Zn         Zn      0.68774   0.66461   0.47091   0.92961
Zn         Zn      0.81491   0.16442   0.97048   0.92906
Zn         Zn      0.31225   0.33540   0.52909   0.92952
H          H       0.47829   0.05380   0.95584   0.12793
H          H       0.54598   0.20435   0.90546   0.11814
H          H       0.39441   0.31916   0.86366   0.13037
H          H       0.20339   0.28853   0.73498   0.14862
H          H       0.22012   0.62759   0.76606   0.11786
H          H       0.16756   0.48465   0.94469   0.14732
H          H       0.97878   0.44463   0.54476   0.12826
H          H       0.04407   0.29373   0.59526   0.11748
H          H       0.89053   0.17992   0.63687   0.13027
H          H       0.70079   0.21161   0.76525   0.14826
H          H       0.71997   0.87269   0.73388   0.11784
H          H       0.66572   0.01527   0.55543   0.14706
H          H       0.52170   0.94621   0.04416   0.13254
H          H       0.45401   0.79565   0.09454   0.11831
H          H       0.60558   0.68084   0.13634   0.13049
H          H       0.79660   0.71147   0.26503   0.14864
H          H       0.77987   0.37241   0.23395   0.11791
H          H       0.83243   0.51535   0.05531   0.14730
H          H       0.02121   0.55537   0.45524   0.12839
H          H       0.95592   0.70627   0.40474   0.11772
H          H       0.10946   0.82008   0.36313   0.13051
H          H       0.29920   0.78839   0.23475   0.14823
H          H       0.28002   0.12731   0.26612   0.11794
H          H       0.33427   0.98473   0.44457   0.14705
C          C       0.24935   0.99136   0.97222   0.57264
C          C       0.28811   0.08282   0.94277  -0.07070
C          C       0.41222   0.10365   0.93749  -0.10743
C          C       0.44990   0.18881   0.90978  -0.05338
C          C       0.36542   0.25370   0.88643  -0.19921
C          C       0.24214   0.23324   0.89183   0.22977
C          C       0.20178   0.14894   0.92066  -0.15793
C          C       0.18134   0.37879   0.84204   0.24495
C          C       0.20141   0.36683   0.76973  -0.19030
C          C       0.21865   0.45753   0.74256  -0.02396
C          C       0.21166   0.55761   0.78786  -0.12760
C          C       0.19430   0.56847   0.86056  -0.02018
C          C       0.18119   0.47795   0.88833  -0.19531
C          C       0.24741   0.44995   0.66600   0.61129
C          C       0.18419   0.67741   0.90669   0.60342
C          C       0.06747   0.12860   0.92096   0.63128
C          C       0.75092   0.50851   0.52790   0.57261
C          C       0.78807   0.41688   0.55760  -0.06832
C          C       0.91186   0.39532   0.56314  -0.10802
C          C       0.94821   0.31001   0.59097  -0.05351
C          C       0.86263   0.24566   0.61415  -0.20063
C          C       0.73963   0.26676   0.60850   0.23026
C          C       0.70048   0.35131   0.57963  -0.15926
C          C       0.67849   0.12133   0.65813   0.24531
C          C       0.69880   0.13337   0.73043  -0.19003
C          C       0.71658   0.04283   0.75761  -0.02189
C          C       0.71073   0.94272   0.71224  -0.12876
C          C       0.69378   0.93190   0.63952  -0.02014
C          C       0.67942   0.02224   0.61181  -0.19429
C          C       0.74531   0.05055   0.83418   0.61148
C          C       0.68519   0.82313   0.59318   0.60054
C          C       0.56610   0.37172   0.57872   0.63270
C          C       0.75064   0.00865   0.02779   0.57244
C          C       0.71188   0.91718   0.05723  -0.07083
C          C       0.58777   0.89635   0.06251  -0.11108
C          C       0.55009   0.81119   0.09022  -0.05346
C          C       0.63457   0.74630   0.11357  -0.19926
C          C       0.75785   0.76676   0.10817   0.22992
C          C       0.79821   0.85106   0.07934  -0.15794
C          C       0.81865   0.62121   0.15796   0.24508
C          C       0.79858   0.63317   0.23027  -0.19024
C          C       0.78134   0.54248   0.25744  -0.02379
C          C       0.78833   0.44239   0.21214  -0.12784
C          C       0.80569   0.43153   0.13944  -0.02003
C          C       0.81880   0.52205   0.11167  -0.19556
C          C       0.75258   0.55006   0.33400   0.61116
C          C       0.81580   0.32259   0.09332   0.60333
C          C       0.93252   0.87140   0.07904   0.63162
C          C       0.24907   0.49149   0.47210   0.57265
C          C       0.21192   0.58312   0.44240  -0.06845
C          C       0.08813   0.60468   0.43686  -0.10793
C          C       0.05178   0.68999   0.40903  -0.05332
C          C       0.13736   0.75435   0.38585  -0.20076
C          C       0.26036   0.73324   0.39150   0.23040
C          C       0.29951   0.64869   0.42037  -0.15934
C          C       0.32150   0.87867   0.34188   0.24526
C          C       0.30119   0.86664   0.26957  -0.19013
C          C       0.28341   0.95718   0.24239  -0.02184
C          C       0.28926   0.05728   0.28776  -0.12876
C          C       0.30621   0.06810   0.36048  -0.02011
C          C       0.32058   0.97776   0.38819  -0.19422
C          C       0.25468   0.94945   0.16582   0.61139
C          C       0.31480   0.17687   0.40682   0.60041
C          C       0.43389   0.62828   0.42128   0.63319
O          O       0.13506   0.98422   0.98874  -0.72089
O          O       0.32234   0.92202   0.98257  -0.49068
O          O       0.15137   0.29023   0.86847  -0.20612
O          O       0.25337   0.35571   0.62658  -0.54131
O          O       0.26606   0.53479   0.64558  -0.65785
O          O       0.14301   0.75005   0.87872  -0.66982
O          O       0.21625   0.69022   0.97167  -0.52878
O          O       0.02378   0.06050   0.87078  -0.60664
O          O       0.00559   0.18376   0.97279  -0.63471
O          O       0.63689   0.51591   0.51112  -0.71962
O          O       0.82472   0.57771   0.51765  -0.49050
O          O       0.64830   0.20970   0.63163  -0.20631
O          O       0.75135   0.14471   0.87374  -0.54195
O          O       0.76386   0.96574   0.85456  -0.65907
O          O       0.64744   0.74923   0.62120  -0.66763
O          O       0.71480   0.81175   0.52789  -0.52882
O          O       0.52177   0.43912   0.62898  -0.60628
O          O       0.50444   0.31706   0.52642  -0.63944
O          O       0.86493   0.01578   0.01126  -0.72118
O          O       0.67765   0.07798   0.01743  -0.48986
O          O       0.84862   0.70977   0.13153  -0.20649
O          O       0.74662   0.64429   0.37342  -0.54125
O          O       0.73393   0.46522   0.35442  -0.65792
O          O       0.85698   0.24995   0.12128  -0.66993
O          O       0.78374   0.30979   0.02833  -0.52857
O          O       0.97621   0.93950   0.12923  -0.60674
O          O       0.99440   0.81624   0.02721  -0.63497
O          O       0.36310   0.48409   0.48889  -0.71988
O          O       0.17527   0.42229   0.48235  -0.49023
O          O       0.35169   0.79030   0.36837  -0.20681
O          O       0.24864   0.85529   0.12626  -0.54206
O          O       0.23613   0.03426   0.14544  -0.65896
O          O       0.35255   0.25077   0.37880  -0.66762
O          O       0.28519   0.18825   0.47211  -0.52857
O          O       0.47822   0.56088   0.37102  -0.60674
O          O       0.49555   0.68294   0.47358  -0.63949

