data_crystal

_audit_creation_method 'AiiDA-DDEC plugin'

_cell_length_a         9.62082
_cell_length_b        19.05391
_cell_length_c        19.00347

_cell_angle_alpha     119.41031
_cell_angle_beta     90.01072
_cell_angle_gamma     90.08891

_symmetry_space_group_name_Hall 'P 1'
_symmetry_space_group_name_H-M  'P 1'

loop_
_symmetry_equiv_pos_as_xyz
 'x,y,z'

loop_
_atom_site_label
_atom_site_type_symbol
_atom_site_fract_x
_atom_site_fract_y
_atom_site_fract_z
_atom_site_charge
Zn         Zn      0.98960   0.49522   0.05686   0.72703
Zn         Zn      0.66372   0.56257   0.50381   0.72830
Zn         Zn      0.32993   0.94137   0.43577   0.72865
Zn         Zn      0.48888   0.50580   0.94294   0.72609
Zn         Zn      0.16323   0.43699   0.49582   0.72746
Zn         Zn      0.82979   0.05884   0.56446   0.72604
H          H       0.23016   0.43290   0.10217   0.07391
H          H       0.28480   0.39530   0.20603   0.10789
H          H       0.88715   0.49740   0.31844   0.10743
H          H       0.84733   0.53215   0.21155   0.07677
H          H       0.02966   0.37541   0.33500   0.08535
H          H       0.20958   0.37549   0.31561   0.09374
H          H       0.26761   0.53442   0.36918   0.09097
H          H       0.11763   0.64441   0.47004   0.14408
H          H       0.29434   0.66529   0.50195   0.14028
H          H       0.17995   0.62673   0.54837   0.13149
H          H       0.03900   0.51078   0.43514   0.25668
H          H       0.90169   0.67092   0.56789   0.07162
H          H       0.95308   0.81218   0.60668   0.10798
H          H       0.55330   0.82158   0.50431   0.10782
H          H       0.51691   0.68024   0.46842   0.07598
H          H       0.69324   0.95838   0.62516   0.08554
H          H       0.87342   0.94107   0.62727   0.09305
H          H       0.93293   0.83713   0.46756   0.09130
H          H       0.78375   0.82827   0.35636   0.14384
H          H       0.96057   0.84000   0.33618   0.13895
H          H       0.84586   0.92369   0.37351   0.13118
H          H       0.70459   0.92631   0.49037   0.25632
H          H       0.56753   0.89540   0.32681   0.07301
H          H       0.61722   0.79156   0.18653   0.10722
H          H       0.21397   0.68502   0.18081   0.10869
H          H       0.17944   0.79148   0.32110   0.07626
H          H       0.35558   0.66557   0.04194   0.08540
H          H       0.53604   0.68457   0.05892   0.09335
H          H       0.59789   0.62943   0.16424   0.09102
H          H       0.44669   0.52858   0.17540   0.14377
H          H       0.62334   0.49717   0.16459   0.14036
H          H       0.50856   0.45080   0.08066   0.13196
H          H       0.36665   0.56492   0.07767   0.25850
H          H       0.72763   0.56879   0.89830   0.07359
H          H       0.78368   0.60568   0.79417   0.10749
H          H       0.38480   0.50449   0.68183   0.10769
H          H       0.34349   0.47066   0.78917   0.07722
H          H       0.53048   0.62477   0.66359   0.08491
H          H       0.71004   0.62461   0.68374   0.09377
H          H       0.76668   0.46527   0.63070   0.09101
H          H       0.61668   0.35489   0.52898   0.14382
H          H       0.79368   0.33483   0.49790   0.14061
H          H       0.67981   0.37319   0.45123   0.13153
H          H       0.53832   0.48905   0.56454   0.25643
H          H       0.40146   0.32959   0.43289   0.07386
H          H       0.45280   0.18810   0.39318   0.10781
H          H       0.05417   0.17725   0.49548   0.10858
H          H       0.01729   0.31884   0.53205   0.07766
H          H       0.19330   0.04083   0.37401   0.08654
H          H       0.37320   0.05866   0.37178   0.09292
H          H       0.43295   0.16378   0.53256   0.09096
H          H       0.28397   0.17078   0.64349   0.14352
H          H       0.46088   0.15920   0.66345   0.13869
H          H       0.34629   0.07500   0.62475   0.13081
H          H       0.20488   0.07400   0.50903   0.25590
H          H       0.06855   0.10516   0.67284   0.07393
H          H       0.11750   0.20727   0.81408   0.10817
H          H       0.71770   0.31610   0.81942   0.10927
H          H       0.68358   0.21118   0.67814   0.07734
H          H       0.85661   0.33296   0.95864   0.08612
H          H       0.03722   0.31526   0.94179   0.09332
H          H       0.09402   0.36997   0.83420   0.09136
H          H       0.94402   0.47340   0.82613   0.14365
H          H       0.12131   0.50464   0.83784   0.14035
H          H       0.00693   0.54906   0.92200   0.13069
H          H       0.86516   0.43289   0.92180   0.25683
C          C       0.15685   0.44431   0.15008  -0.01118
C          C       0.18562   0.42395   0.20847  -0.20424
C          C       0.08860   0.43855   0.27065   0.01212
C          C       0.96438   0.48008   0.27077  -0.20349
C          C       0.94025   0.49971   0.21147   0.01442
C          C       0.11477   0.41212   0.33084  -0.09410
C          C       0.24598   0.53725   0.42728   0.03562
C          C       0.37680   0.51342   0.45632   0.56806
C          C       0.20722   0.62378   0.49082  -0.41006
C          C       0.82727   0.70711   0.55660  -0.01025
C          C       0.85410   0.78575   0.57772  -0.20368
C          C       0.75551   0.83291   0.56326   0.01239
C          C       0.63172   0.79135   0.52137  -0.20324
C          C       0.60962   0.71258   0.50098   0.01368
C          C       0.77978   0.91902   0.58949  -0.09668
C          C       0.91171   0.89208   0.46429   0.03522
C          C       0.04310   0.94429   0.48771   0.56869
C          C       0.87306   0.86964   0.37725  -0.40890
C          C       0.49220   0.84853   0.29166  -0.01104
C          C       0.51818   0.79020   0.21362  -0.20223
C          C       0.41855   0.72940   0.16762   0.01141
C          C       0.29398   0.73103   0.20988  -0.20439
C          C       0.27261   0.79011   0.28808   0.01350
C          C       0.44221   0.66946   0.08173  -0.09642
C          C       0.57432   0.57188   0.11005   0.03450
C          C       0.70396   0.54289   0.05689   0.56823
C          C       0.53601   0.50823   0.13414  -0.41070
C          C       0.65430   0.55760   0.85038  -0.01227
C          C       0.68382   0.57751   0.79182  -0.20362
C          C       0.58715   0.56276   0.72935   0.01272
C          C       0.46202   0.52191   0.72961  -0.20335
C          C       0.43705   0.50275   0.78913   0.01547
C          C       0.61476   0.58816   0.66849  -0.09482
C          C       0.74511   0.46255   0.57266   0.03625
C          C       0.87661   0.48608   0.54392   0.56868
C          C       0.70646   0.37604   0.50881  -0.41049
C          C       0.32679   0.29287   0.44338  -0.01230
C          C       0.35360   0.21415   0.42175  -0.20290
C          C       0.25489   0.16657   0.43560   0.01344
C          C       0.13165   0.20780   0.47809  -0.20333
C          C       0.10945   0.28664   0.49890   0.01388
C          C       0.27973   0.08059   0.40961  -0.09544
C          C       0.41190   0.10852   0.53538   0.03514
C          C       0.54352   0.05679   0.51196   0.56707
C          C       0.37338   0.12973   0.62212  -0.40778
C          C       0.99330   0.15178   0.70826  -0.01142
C          C       0.01884   0.20905   0.78681  -0.20299
C          C       0.91940   0.26959   0.83292   0.01272
C          C       0.79635   0.26939   0.79023  -0.20487
C          C       0.77543   0.21134   0.71157   0.01410
C          C       0.94289   0.32965   0.91887  -0.09660
C          C       0.07227   0.42727   0.88914   0.03419
C          C       0.20346   0.45577   0.94132   0.56824
C          C       0.03362   0.49250   0.86731  -0.41057
N          N       0.13214   0.48065   0.41719  -0.35036
N          N       0.03216   0.48085   0.14801  -0.33601
N          N       0.79784   0.93779   0.52073  -0.34941
N          N       0.70316   0.66817   0.51946  -0.33708
N          N       0.45940   0.58276   0.06443  -0.34890
N          N       0.36766   0.85187   0.33110  -0.33617
N          N       0.63180   0.51910   0.58243  -0.34968
N          N       0.52901   0.52156   0.85264  -0.33497
N          N       0.29814   0.06249   0.47875  -0.35022
N          N       0.20254   0.33130   0.48031  -0.33644
N          N       0.95863   0.41615   0.93541  -0.34758
N          N       0.86961   0.14931   0.66844  -0.33639
O          O       0.36181   0.48603   0.50546  -0.53146
O          O       0.49292   0.52625   0.43244  -0.52292
O          O       0.02836   0.02013   0.51468  -0.53173
O          O       0.15925   0.90796   0.47455  -0.52551
O          O       0.68762   0.49334   0.98151  -0.53316
O          O       0.82072   0.56687   0.09251  -0.52190
O          O       0.86234   0.51413   0.49534  -0.53222
O          O       0.99250   0.47208   0.56715  -0.52390
O          O       0.52883   0.98079   0.48419  -0.53245
O          O       0.65964   0.09349   0.52586  -0.52414
O          O       0.18862   0.50389   0.01713  -0.53372
O          O       0.31971   0.43330   0.90484  -0.52170

