data_crystal

_audit_creation_method 'AiiDA-DDEC plugin'

_cell_length_a        12.61023
_cell_length_b        13.08916
_cell_length_c        12.89594

_cell_angle_alpha     78.70841
_cell_angle_beta     62.26406
_cell_angle_gamma     62.09667

_symmetry_space_group_name_Hall 'P 1'
_symmetry_space_group_name_H-M  'P 1'

loop_
_symmetry_equiv_pos_as_xyz
 'x,y,z'

loop_
_atom_site_label
_atom_site_type_symbol
_atom_site_fract_x
_atom_site_fract_y
_atom_site_fract_z
_atom_site_charge
Zn         Zn      0.65292   0.13631   0.40139   0.85771
Zn         Zn      0.34707   0.86369   0.59861   0.85771
Zn         Zn      0.00000   0.00000   0.00000   1.01607
H          H       0.08121   0.83965   0.87517   0.36030
H          H       0.97612   0.18018   0.56264   0.11345
H          H       0.81753   0.93884   0.60376   0.10604
H          H       0.67854   0.11386   0.72255   0.10685
H          H       0.71851   0.23338   0.67338   0.13135
H          H       0.95077   0.96996   0.77691   0.13306
H          H       0.61748   0.92097   0.58269   0.13356
H          H       0.33882   0.95490   0.86680   0.12285
H          H       0.51010   0.85930   0.79053   0.11095
H          H       0.26631   0.08607   0.02541   0.11807
H          H       0.68124   0.86357   0.83243   0.10877
H          H       0.89965   0.77575   0.17074   0.15190
H          H       0.02042   0.78171   0.19814   0.13442
H          H       0.77421   0.74858   0.38314   0.09069
H          H       0.88275   0.76986   0.41866   0.09433
H          H       0.94076   0.37741   0.20438   0.11345
H          H       0.04242   0.25975   0.26178   0.10215
H          H       0.84865   0.32024   0.46611   0.12856
H          H       0.74755   0.42432   0.40090   0.14010
H          H       0.24971   0.46163   0.43574   0.09907
H          H       0.27535   0.31919   0.41745   0.09376
H          H       0.38806   0.34440   0.19389   0.13055
H          H       0.39175   0.46780   0.22553   0.13845
H          H       0.39878   0.28164   0.64623   0.12646
H          H       0.27709   0.75832   0.96913   0.12742
H          H       0.91879   0.16036   0.12483   0.36028
H          H       0.02388   0.81983   0.43735   0.11339
H          H       0.18247   0.06116   0.39624   0.10605
H          H       0.32146   0.88615   0.27745   0.10686
H          H       0.28149   0.76662   0.32661   0.13127
H          H       0.04923   0.03004   0.22309   0.13306
H          H       0.38252   0.07903   0.41731   0.13357
H          H       0.66118   0.04510   0.13319   0.12283
H          H       0.48990   0.14070   0.20947   0.11101
H          H       0.73369   0.91393   0.97459   0.11798
H          H       0.31876   0.13643   0.16757   0.10880
H          H       0.10035   0.22425   0.82926   0.15187
H          H       0.97958   0.21829   0.80186   0.13439
H          H       0.22579   0.25142   0.61686   0.09070
H          H       0.11725   0.23014   0.58134   0.09437
H          H       0.05924   0.62259   0.79562   0.11336
H          H       0.95757   0.74025   0.73821   0.10218
H          H       0.15135   0.67976   0.53388   0.12859
H          H       0.25245   0.57569   0.59910   0.14000
H          H       0.75029   0.53837   0.56426   0.09907
H          H       0.72465   0.68081   0.58255   0.09390
H          H       0.61194   0.65560   0.80611   0.13051
H          H       0.60825   0.53220   0.77447   0.13834
H          H       0.60122   0.71836   0.35377   0.12643
H          H       0.72291   0.24169   0.03086   0.12746
C          C       0.98678   0.10108   0.53521  -0.12780
C          C       0.88226   0.06841   0.59389   0.07957
C          C       0.89672   0.96653   0.55815  -0.12542
C          C       0.75716   0.14179   0.69533  -0.13232
C          C       0.75821   0.19087   0.95453   0.13539
C          C       0.87584   0.05045   0.82661   0.07029
C          C       0.43535   0.18910   0.65811   0.13623
C          C       0.54810   0.00618   0.62335   0.07737
C          C       0.44063   0.94552   0.83123  -0.15111
C          C       0.47031   0.97018   0.92153   0.08381
C          C       0.36815   0.04757   0.01552  -0.13044
C          C       0.60206   0.92314   0.90619  -0.14610
C          C       0.83387   0.93168   0.25761   0.64143
C          C       0.91445   0.80168   0.23719  -0.33087
C          C       0.87600   0.73741   0.35122  -0.02764
C          C       0.92188   0.54083   0.31144   0.53626
C          C       0.07345   0.57079   0.35939   0.53404
C          C       0.11065   0.37235   0.33333   0.53744
C          C       0.95868   0.34542   0.28243  -0.01913
C          C       0.83496   0.34054   0.38513  -0.33154
C          C       0.80466   0.24898   0.36453   0.63603
C          C       0.26495   0.40220   0.37581  -0.03065
C          C       0.38890   0.38519   0.26045  -0.32154
C          C       0.51751   0.30485   0.27306   0.61878
C          C       0.01322   0.89892   0.46479  -0.12780
C          C       0.11774   0.93159   0.40611   0.07960
C          C       0.10328   0.03348   0.44185  -0.12543
C          C       0.24284   0.85821   0.30466  -0.13233
C          C       0.24179   0.80914   0.04547   0.13537
C          C       0.12416   0.94955   0.17339   0.07040
C          C       0.56465   0.81091   0.34188   0.13613
C          C       0.45189   0.99382   0.37665   0.07754
C          C       0.55937   0.05449   0.16876  -0.15113
C          C       0.52969   0.02982   0.07847   0.08387
C          C       0.63185   0.95243   0.98448  -0.13043
C          C       0.39794   0.07686   0.09381  -0.14611
C          C       0.16613   0.06832   0.74239   0.64128
C          C       0.08555   0.19832   0.76281  -0.33076
C          C       0.12400   0.26260   0.64878  -0.02771
C          C       0.07812   0.45917   0.68856   0.53636
C          C       0.92655   0.42922   0.64061   0.53408
C          C       0.88935   0.62765   0.66667   0.53733
C          C       0.04132   0.65459   0.71757  -0.01912
C          C       0.16504   0.65946   0.61487  -0.33137
C          C       0.19533   0.75102   0.63547   0.63602
C          C       0.73505   0.59780   0.62419  -0.03074
C          C       0.61110   0.61481   0.73954  -0.32145
C          C       0.48249   0.69515   0.72694   0.61863
N          N       0.96145   0.61159   0.33880  -0.22793
N          N       0.14327   0.45060   0.35776  -0.23788
N          N       0.00040   0.42198   0.30878  -0.22617
N          N       0.53642   0.10774   0.57139  -0.32465
N          N       0.38409   0.14341   0.75984  -0.24759
N          N       0.45734   0.02728   0.73586   0.17967
N          N       0.86239   0.08277   0.92613  -0.28997
N          N       0.70620   0.22656   0.87765  -0.26316
N          N       0.78291   0.13673   0.79690   0.17415
N          N       0.03855   0.38841   0.66120  -0.22792
N          N       0.85673   0.54940   0.64224  -0.23786
N          N      -0.00040   0.57803   0.69121  -0.22627
N          N       0.46358   0.89227   0.42861  -0.32478
N          N       0.61591   0.85660   0.24016  -0.24758
N          N       0.54266   0.97273   0.26414   0.17968
N          N       0.13761   0.91723   0.07387  -0.28978
N          N       0.29379   0.77344   0.12235  -0.26330
N          N       0.21709   0.86328   0.20310   0.17408
O          O       0.69488   0.24638   0.44239  -0.55986
O          O       0.88449   0.18092   0.27681  -0.53829
O          O       0.50672   0.22833   0.35385  -0.57804
O          O       0.62232   0.31376   0.20573  -0.47813
O          O       0.83919   0.00114   0.17419  -0.55169
O          O       0.75751   0.96750   0.36529  -0.54164
O          O       0.82364   0.58032   0.29204  -0.46049
O          O       0.10747   0.63569   0.38000  -0.47612
O          O       0.17630   0.26711   0.33319  -0.48153
O          O       0.03055   0.85248   0.96087  -0.66509
O          O       0.30512   0.75362   0.55760  -0.55989
O          O       0.11551   0.81908   0.72319  -0.53828
O          O       0.49328   0.77167   0.64615  -0.57793
O          O       0.37768   0.68624   0.79427  -0.47807
O          O       0.16081  -0.00113   0.82581  -0.55178
O          O       0.24249   0.03250   0.63471  -0.54148
O          O       0.17636   0.41969   0.70796  -0.46063
O          O       0.89253   0.36431   0.62000  -0.47616
O          O       0.82369   0.73289   0.66681  -0.48130
O          O       0.96945   0.14752   0.03913  -0.66502

