data_crystal

_audit_creation_method 'AiiDA-DDEC plugin'

_cell_length_a         9.58303
_cell_length_b        10.31917
_cell_length_c        15.55648

_cell_angle_alpha     90.24953
_cell_angle_beta     98.54029
_cell_angle_gamma     90.32669

_symmetry_space_group_name_Hall 'P 1'
_symmetry_space_group_name_H-M  'P 1'

loop_
_symmetry_equiv_pos_as_xyz
 'x,y,z'

loop_
_atom_site_label
_atom_site_type_symbol
_atom_site_fract_x
_atom_site_fract_y
_atom_site_fract_z
_atom_site_charge
Ho         Ho      0.23013   0.10395   0.40032   2.06692
Ho         Ho      0.27050   0.60068   0.10376   2.07043
Ho         Ho      0.77000   0.89605   0.59969   2.06710
Ho         Ho      0.72939   0.39933   0.89621   2.06988
P          P       0.17686   0.85243   0.23207   1.39735
P          P       0.32447   0.35279   0.27018   1.39859
P          P       0.82316   0.14755   0.76792   1.39750
P          P       0.67552   0.64722   0.72983   1.39956
H          H       0.32549   0.86259   0.91955   0.14478
H          H       0.39190   0.10045   0.91284   0.13550
H          H       0.29326   0.25702   0.01305   0.12171
H          H       0.14397   0.16957   0.11867   0.14651
H          H       0.00225   0.83296   0.10513   0.17267
H          H       0.99537   0.98708   0.15824   0.17078
H          H       0.04813   0.82434   0.33202   0.38854
H          H       0.17494   0.36774   0.58250   0.14443
H          H       0.10809   0.60501   0.58797   0.13750
H          H       0.20524   0.75987   0.48623   0.12232
H          H       0.35428   0.67151   0.38090   0.14662
H          H       0.49906   0.33717   0.39774   0.17303
H          H       0.50640   0.49049   0.34446   0.17014
H          H       0.45288   0.32455   0.16964   0.38798
H          H       0.67456   0.13740   0.08044   0.14475
H          H       0.60806   0.89954   0.08712   0.13569
H          H       0.70665   0.74297   0.98696   0.12131
H          H       0.85598   0.83040   0.88130   0.14644
H          H      -0.00226   0.16702   0.89488   0.17283
H          H       0.00466   0.01292   0.84175   0.17082
H          H       0.95195   0.17563   0.66803   0.38866
H          H       0.82510   0.63224   0.41749   0.14421
H          H       0.89198   0.39497   0.41201   0.13750
H          H       0.79485   0.24013   0.51376   0.12258
H          H       0.64576   0.32847   0.61907   0.14683
H          H       0.50099   0.66278   0.60226   0.17283
H          H       0.49366   0.50947   0.65555   0.17066
H          H       0.54562   0.67502   0.82974   0.38801
C          C       0.28834   0.93746   0.95966  -0.03837
C          C       0.32289   0.06772   0.95805  -0.11901
C          C       0.26988   0.15404   0.01445  -0.03329
C          C       0.18494   0.10594   0.07246  -0.14978
C          C       0.15078   0.97460   0.07370   0.19504
C          C       0.06508   0.91478   0.13539  -0.55501
C          C       0.54247   0.03347   0.46757   0.50225
C          C       0.00680   0.06298   0.52676   0.50774
C          C       0.21154   0.44204   0.54184  -0.03625
C          C       0.17665   0.57190   0.54267  -0.11944
C          C       0.22899   0.65717   0.48548  -0.03414
C          C       0.31400   0.60865   0.42772  -0.14548
C          C       0.34920   0.47784   0.42766   0.19275
C          C       0.43634   0.41768   0.36692  -0.55362
C          C       0.95721   0.53211   0.03276   0.50435
C          C       0.49127   0.56289   0.97303   0.50816
C          C       0.71167   0.06252   0.04032  -0.03845
C          C       0.67708   0.93227   0.04192  -0.11858
C          C       0.73006   0.84595   0.98551  -0.03324
C          C       0.81503   0.89403   0.92752  -0.14823
C          C       0.84923   0.02537   0.92628   0.19130
C          C       0.93493   0.08520   0.86461  -0.55393
C          C       0.45748   0.96652   0.53243   0.50228
C          C       0.99328   0.93708   0.47328   0.50728
C          C       0.78848   0.55794   0.45814  -0.03631
C          C       0.82338   0.42808   0.45731  -0.11989
C          C       0.77105   0.34281   0.51449  -0.03429
C          C       0.68604   0.39133   0.57225  -0.14545
C          C       0.65082   0.52213   0.57232   0.19307
C          C       0.56372   0.58227   0.63307  -0.55393
C          C       0.04235   0.46801   0.96718   0.50405
C          C       0.50634   0.43696   0.02559   0.51129
N          N       0.20304   0.89247   0.01616   0.29596
N          N       0.29673   0.39668   0.48549   0.29514
N          N       0.79696   0.10752   0.98382   0.29705
N          N       0.70328   0.60328   0.51448   0.29511
O          O       0.23751   0.96794   0.28642  -0.87079
O          O       0.07088   0.77154   0.28143  -0.64526
O          O       0.28519   0.76024   0.20282  -0.86486
O          O       0.16673   0.76841   0.01340  -0.59070
O          O       0.67625   0.02587   0.48501  -0.62200
O          O       0.47307   0.09022   0.40347  -0.56076
O          O       0.06877   0.15786   0.49812  -0.59477
O          O       0.95161   0.05908   0.59645  -0.60455
O          O       0.26343   0.46724   0.21618  -0.87196
O          O       0.42998   0.27266   0.22040  -0.64172
O          O       0.21602   0.26014   0.29951  -0.86194
O          O       0.33344   0.27308   0.48900  -0.59296
O          O       0.82339   0.52673   0.01325  -0.62328
O          O       0.02673   0.58425   0.09930  -0.56311
O          O       0.43128   0.65695   0.00384  -0.59337
O          O       0.54328   0.55927   0.90202  -0.61035
O          O       0.76247   0.03207   0.71358  -0.87029
O          O       0.92910   0.22848   0.71857  -0.64546
O          O       0.71487   0.23979   0.79723  -0.86471
O          O       0.83323   0.23159   0.98657  -0.59050
O          O       0.32368   0.97414   0.51498  -0.62223
O          O       0.52690   0.90977   0.59652  -0.56009
O          O       0.93122   0.84220   0.50190  -0.59483
O          O       0.04841   0.94093   0.40356  -0.60425
O          O       0.73652   0.53280   0.78389  -0.87266
O          O       0.57013   0.72746   0.77954  -0.64274
O          O       0.78400   0.73985   0.70046  -0.86249
O          O       0.66657   0.72691   0.51100  -0.59340
O          O       0.17606   0.47343   0.98665  -0.62136
O          O       0.97290   0.41571   0.90063  -0.56395
O          O       0.56876   0.34331   0.99610  -0.59327
O          O       0.45142   0.43990   0.09556  -0.61452

