data_crystal

_audit_creation_method 'AiiDA-DDEC plugin'

_cell_length_a         9.81793
_cell_length_b        15.85489
_cell_length_c        15.85185

_cell_angle_alpha     116.05474
_cell_angle_beta     101.91950
_cell_angle_gamma     101.78870

_symmetry_space_group_name_Hall 'P 1'
_symmetry_space_group_name_H-M  'P 1'

loop_
_symmetry_equiv_pos_as_xyz
 'x,y,z'

loop_
_atom_site_label
_atom_site_type_symbol
_atom_site_fract_x
_atom_site_fract_y
_atom_site_fract_z
_atom_site_charge
Cu         Cu      0.30700   0.67450   0.63261   0.31518
Cu         Cu      0.07024   0.69398   0.67858   0.27818
Cu         Cu      0.63625   0.95723   0.32555   0.31875
Cu         Cu      0.37977   0.98523   0.30758   0.27848
Cu         Cu      0.67328   0.36692   0.04258   0.31800
Cu         Cu      0.39093   0.32343   0.01648   0.27835
Cu         Cu      0.69300   0.32551   0.36739   0.31515
Cu         Cu      0.92977   0.30603   0.32142   0.27827
Cu         Cu      0.36376   0.04278   0.67445   0.31866
Cu         Cu      0.62023   0.01477   0.69242   0.27847
Cu         Cu      0.32672   0.63309   0.95742   0.31782
Cu         Cu      0.60907   0.67657   0.98352   0.27837
H          H       0.80601   0.27822   0.51918   0.10818
H          H       0.97170   0.37821   0.69971   0.13679
H          H       0.08962   0.56313   0.77104   0.08476
H          H       0.07937   0.03369   0.90080   0.11441
H          H       0.00172   0.84568   0.81748   0.07514
H          H       0.24427   0.11605   0.83601   0.08529
H          H       0.52968   0.24292   0.72370   0.10759
H          H       0.59777   0.32231   0.62367   0.13641
H          H       0.52956   0.20755   0.43834   0.08503
H          H       0.04833   0.86708   0.96794   0.11371
H          H       0.15828   0.97242   0.15614   0.07610
H          H       0.13493   0.72143   0.88471   0.08456
H          H       0.28802   0.47953   0.75734   0.10859
H          H       0.26969   0.29813   0.67770   0.13785
H          H       0.31858   0.22977   0.79350   0.08383
H          H       0.18120   0.10088   0.13327   0.11387
H          H       0.18400   0.18509   0.02966   0.07538
H          H       0.41316   0.16401   0.27903   0.08586
H          H       0.19399   0.72178   0.48082   0.10830
H          H       0.02831   0.62179   0.30029   0.13692
H          H       0.91039   0.43687   0.22896   0.08472
H          H       0.92064   0.96631   0.09920   0.11436
H          H      -0.00171   0.15432   0.18252   0.07537
H          H       0.75574   0.88396   0.16399   0.08512
H          H       0.47033   0.75709   0.27630   0.10755
H          H       0.40224   0.67770   0.37633   0.13623
H          H       0.47045   0.79245   0.56166   0.08496
H          H       0.95167   0.13293   0.03206   0.11363
H          H       0.84173   0.02759   0.84386   0.07601
H          H       0.86507   0.27858   0.11529   0.08454
H          H       0.71198   0.52048   0.24266   0.10848
H          H       0.73031   0.70187   0.32230   0.13782
H          H       0.68143   0.77023   0.20650   0.08394
H          H       0.81881   0.89912   0.86673   0.11408
H          H       0.81601   0.81491   0.97034   0.07543
H          H       0.58685   0.83600   0.72097   0.08594
C          C       0.85240   0.35921   0.55806   0.14788
C          C       0.00843   0.51596   0.69635   0.14997
C          C       0.94521   0.41407   0.65692  -0.24576
C          C       0.08074   0.88814   0.79949   0.12085
C          C       0.21209   0.03605   0.80786   0.14971
C          C       0.12045   0.99084   0.84339  -0.26436
C          C       0.87453   0.50566   0.54631   0.58742
C          C       0.23596   0.88219   0.70229   0.59594
C          C       0.49532   0.20033   0.64267   0.15061
C          C       0.49555   0.18079   0.48584   0.14818
C          C       0.53465   0.24371   0.58786  -0.24629
C          C       0.19569   0.91224   0.11339   0.12083
C          C       0.18154   0.77320   0.96488   0.14632
C          C       0.13307   0.85314   0.01059  -0.26298
C          C       0.37005   0.04179   0.49601   0.58286
C          C       0.35814   0.82159   0.11883   0.59253
C          C       0.29450   0.44137   0.80005   0.14924
C          C       0.31115   0.30416   0.82016   0.15130
C          C       0.28707   0.34224   0.75662  -0.24707
C          C       0.28193   0.20231   0.08937   0.12142
C          C       0.40794   0.19240   0.22744   0.14699
C          C       0.27944   0.15797   0.14767  -0.26212
C          C       0.32746   0.45528   0.95930   0.58721
C          C       0.53510   0.29825   0.17934   0.59372
C          C       0.14760   0.64079   0.44194   0.14805
C          C       0.99157   0.48404   0.30365   0.15009
C          C       0.05479   0.58594   0.34308  -0.24566
C          C       0.91927   0.11186   0.20051   0.12078
C          C       0.78792   0.96395   0.19214   0.14972
C          C       0.87955   0.00916   0.15661  -0.26415
C          C       0.12548   0.49435   0.45369   0.58776
C          C       0.76405   0.11782   0.29771   0.59611
C          C       0.50469   0.79967   0.35733   0.15060
C          C       0.50446   0.81922   0.51416   0.14786
C          C       0.46535   0.75629   0.41214  -0.24622
C          C       0.80431   0.08777   0.88661   0.12082
C          C       0.81846   0.22680   0.03512   0.14635
C          C       0.86693   0.14687   0.98941  -0.26299
C          C       0.62995   0.95822   0.50399   0.58280
C          C       0.64186   0.17842   0.88117   0.59252
C          C       0.70551   0.55863   0.19995   0.14918
C          C       0.68885   0.69584   0.17984   0.15143
C          C       0.71293   0.65777   0.24338  -0.24716
C          C       0.71807   0.79770   0.91063   0.12134
C          C       0.59206   0.80760   0.77256   0.14736
C          C       0.72056   0.84203   0.85233  -0.26213
C          C       0.67255   0.54473   0.04070   0.58720
C          C       0.46491   0.70176   0.82066   0.59378
N          N       0.97673   0.56096   0.64390  -0.35091
N          N       0.81623   0.40195   0.50376  -0.34968
N          N       0.13494   0.83383   0.73089  -0.33165
N          N       0.26384   0.98399   0.73678  -0.32720
N          N       0.41790   0.08337   0.44073  -0.34813
N          N       0.41480   0.10346   0.59972  -0.35032
N          N       0.30475   0.89841   0.16744  -0.32774
N          N       0.28626   0.75486   0.01666  -0.32495
N          N       0.33203   0.35770   0.91784  -0.35113
N          N       0.31309   0.49676   0.89731  -0.35250
N          N       0.40431   0.27061   0.10343  -0.33045
N          N       0.53062   0.26280   0.24588  -0.32359
N          N       0.02328   0.43904   0.35610  -0.35128
N          N       0.18377   0.59805   0.49624  -0.34982
N          N       0.86506   0.16617   0.26911  -0.33159
N          N       0.73617   0.01602   0.26322  -0.32745
N          N       0.58211   0.91664   0.55927  -0.34803
N          N       0.58520   0.89654   0.40028  -0.35025
N          N       0.69526   0.10160   0.83256  -0.32773
N          N       0.71374   0.24515   0.98334  -0.32496
N          N       0.66797   0.64230   0.08216  -0.35091
N          N       0.68691   0.50325   0.10269  -0.35265
N          N       0.59569   0.72939   0.89657  -0.33055
N          N       0.46939   0.73720   0.75412  -0.32373
O          O       0.84138   0.54816   0.49961  -0.54095
O          O       0.29998   0.83639   0.64675  -0.54081
O          O       0.29380   0.95260   0.45367  -0.54062
O          O       0.46713   0.81151   0.16483  -0.54133
O          O       0.34016   0.50315   0.04853  -0.54210
O          O       0.65401   0.35382   0.18877  -0.54048
O          O       0.15863   0.45184   0.50039  -0.54135
O          O       0.70002   0.16362   0.35325  -0.54099
O          O       0.70620   0.04741   0.54633  -0.54035
O          O       0.53288   0.18849   0.83517  -0.54128
O          O       0.65985   0.49685   0.95147  -0.54210
O          O       0.34600   0.64619   0.81123  -0.54076

