data_crystal

_audit_creation_method 'AiiDA-DDEC plugin'

_cell_length_a        13.13706
_cell_length_b        12.51983
_cell_length_c        17.10317

_cell_angle_alpha     96.44548
_cell_angle_beta     89.59838
_cell_angle_gamma     122.79342

_symmetry_space_group_name_Hall 'P 1'
_symmetry_space_group_name_H-M  'P 1'

loop_
_symmetry_equiv_pos_as_xyz
 'x,y,z'

loop_
_atom_site_label
_atom_site_type_symbol
_atom_site_fract_x
_atom_site_fract_y
_atom_site_fract_z
_atom_site_charge
Cd         Cd      0.26895   0.52865   0.96870   1.00576
Cd         Cd      0.74127   0.46663   0.03040   1.00929
Cd         Cd      0.46203   0.00028   0.49847   1.02993
H          H       0.10769   0.83516   0.64161   0.16271
H          H       0.36841   0.78793   0.75726   0.14622
H          H       0.02547   0.65713   0.85744   0.14059
H          H       0.85151   0.56399   0.79079   0.07673
H          H       0.98516   0.39098   0.85390   0.13673
H          H       0.87138   0.22560   0.60834   0.15418
H          H       0.64308   0.29870   0.75501   0.13201
H          H       0.32546   0.42059   0.78506   0.14605
H          H       0.23636   0.29598   0.70631   0.15343
H          H       0.28589   0.45799   0.69736   0.14925
H          H       0.15617   0.45744   0.80307   0.05538
H          H       0.69997   0.62097   0.82581   0.22386
H          H       0.74063   0.71597   0.74396   0.19787
H          H       0.66410   0.54231   0.72927   0.21199
H          H       0.26799   0.17158   0.36549   0.16220
H          H       0.57308   0.20902   0.24569   0.14654
H          H       0.37246   0.34917   0.14963   0.13587
H          H       0.28804   0.43764   0.21045   0.07416
H          H       0.58673   0.60043   0.14594   0.13863
H          H       0.64346   0.77621   0.38939   0.15623
H          H       0.34233   0.70126   0.24187   0.13389
H          H       0.89358   0.57039   0.21551   0.14548
H          H       0.93144   0.69393   0.29490   0.15366
H          H       0.81327   0.53178   0.30298   0.14947
H          H       0.68627   0.53385   0.19821   0.05346
H          H       0.07345   0.37593   0.18329   0.22270
H          H       0.02640   0.29057   0.26967   0.19655
H          H       0.12707   0.46399   0.27710   0.21189
C          C       0.22993   0.66019   0.87391   0.53794
C          C       0.33285   0.87673   0.62906   0.53387
C          C       0.10409   0.27723   0.84247   0.54953
C          C       0.13377   0.80335   0.68981  -0.17157
C          C       0.27999   0.77585   0.75450  -0.08689
C          C       0.98318   0.82476   0.98810   0.74636
C          C       0.79232   0.39977   0.88914   0.54373
C          C       0.08541   0.70097   0.81066  -0.21554
C          C       0.19932   0.71660   0.81257   0.00981
C          C       0.94406   0.31215   0.72876   0.26377
C          C       0.81461   0.35161   0.81137  -0.00461
C          C       0.05660   0.74480   0.74880   0.20181
C          C       0.84629   0.63924   0.76821   0.39196
C          C       0.74800   0.25617   0.67525  -0.00312
C          C       0.92197   0.35478   0.80263  -0.21683
C          C       0.85620   0.26189   0.66508  -0.17030
C          C       0.64895   0.19065   0.61053   0.53453
C          C       0.72786   0.30381   0.74782  -0.12631
C          C       0.25412   0.38606   0.73821  -0.42637
C          C       0.24731   0.81817   0.69286   0.01410
C          C       0.14041   0.36635   0.77496   0.08644
C          C       0.73268   0.63301   0.76560  -0.48640
C          C       0.56589   0.33403   0.12649   0.53437
C          C       0.44820   0.12351   0.37397   0.53402
C          C       0.82019   0.71393   0.15858   0.54674
C          C       0.32729   0.20263   0.31688  -0.16833
C          C       0.49926   0.22458   0.24908  -0.08496
C          C       0.19772   0.19575   0.01963   0.74008
C          C       0.38845   0.59880   0.10879   0.54094
C          C       0.38592   0.30412   0.19561  -0.21605
C          C       0.48085   0.28405   0.19116   0.01192
C          C       0.62549   0.68313   0.27055   0.26545
C          C       0.45876   0.64578   0.18673  -0.00555
C          C       0.31216   0.26236   0.25832   0.20304
C          C       0.20809   0.36536   0.23746   0.39224
C          C       0.48915   0.74419   0.32210  -0.00295
C          C       0.56097   0.63961   0.19638  -0.21574
C          C       0.59057   0.73769   0.33312  -0.17355
C          C       0.45401   0.80924   0.38512   0.53334
C          C       0.42140   0.69585   0.24957  -0.12887
C          C       0.85679   0.60436   0.26258  -0.42746
C          C       0.42370   0.18468   0.31194   0.01283
C          C       0.76447   0.62487   0.22609   0.08875
C          C       0.10047   0.37074   0.24326  -0.48391
O          O       0.32785   0.66197   0.86927  -0.54164
O          O       0.17629   0.33251   0.90537  -0.59285
O          O       0.05953   0.89930   0.03605  -0.34011
O          O       0.43718   0.89649   0.63507  -0.48196
O          O       0.84071   0.39507   0.95195  -0.51585
O          O       0.15267   0.60434   0.92486  -0.54890
O          O       0.66033   0.12567   0.55170  -0.47853
O          O       0.55593   0.19632   0.61636  -0.49123
O          O       0.94130   0.73255   0.74257  -0.04879
O          O       0.04741   0.31564   0.71306  -0.15509
O          O       0.29331   0.90294   0.57043  -0.51196
O          O       0.01634   0.16570   0.82953  -0.42783
O          O       0.72596   0.44626   0.88955  -0.57386
O          O       0.91030   0.75241   0.93709  -0.39484
O          O       0.65853   0.32601   0.12727  -0.53779
O          O       0.84158   0.66230   0.09602  -0.59607
O          O       0.22878   0.14844   0.97030  -0.33541
O          O       0.53333   0.10528   0.36588  -0.48873
O          O       0.44158   0.59689   0.04656  -0.52054
O          O       0.54651   0.39140   0.07685  -0.55190
O          O       0.52970   0.87478   0.44467  -0.47910
O          O       0.35472   0.80170   0.37713  -0.49163
O          O       0.21047   0.27631   0.26594  -0.04875
O          O       0.72261   0.67625   0.28786  -0.15927
O          O       0.38145   0.09332   0.43290  -0.51024
O          O       0.84089   0.82317   0.17049  -0.42691
O          O       0.27577   0.56017   0.10745  -0.57073
O          O       0.16845   0.24266   0.07107  -0.39444

