data_crystal

_audit_creation_method 'AiiDA-DDEC plugin'

_cell_length_a         8.07857
_cell_length_b        17.39647
_cell_length_c        17.40052

_cell_angle_alpha     117.69412
_cell_angle_beta     98.92106
_cell_angle_gamma     98.88683

_symmetry_space_group_name_Hall 'P 1'
_symmetry_space_group_name_H-M  'P 1'

loop_
_symmetry_equiv_pos_as_xyz
 'x,y,z'

loop_
_atom_site_label
_atom_site_type_symbol
_atom_site_fract_x
_atom_site_fract_y
_atom_site_fract_z
_atom_site_charge
In         In      0.34393   0.57138   0.27103   1.48522
In         In      0.77216   0.69967   0.42870   1.48404
In         In      0.07279   0.72861   0.30004   1.48623
In         In      0.65607   0.42862   0.72897   1.48517
In         In      0.22784   0.30033   0.57130   1.48405
In         In      0.92722   0.27138   0.69996   1.48623
H          H       0.77253   0.59531   0.86655   0.29499
H          H       0.87904   0.59466   0.78849   0.32128
H          H       0.12469   0.63653   0.37939   0.37794
H          H       0.43041   0.58413   0.03803   0.12818
H          H       0.14836   0.52775   0.77796   0.13732
H          H       0.90921   0.61301  -0.00098   0.13935
H          H       0.17667   0.27172   0.40516   0.29833
H          H       0.28357   0.19383   0.40507   0.32061
H          H       0.48692   0.74293   0.36399   0.37602
H          H       0.84568   0.45383   0.41591   0.12754
H          H       0.61959   0.25029   0.47225   0.13766
H          H       0.29561   0.38633   0.38721   0.13862
H          H       0.90667   0.13393   0.72891   0.29746
H          H       0.09118   0.21191   0.80658   0.32050
H          H       0.74510   0.62105   0.25732   0.37652
H          H       0.39157   0.96177   0.54584   0.12603
H          H       0.37108   0.22228   0.74987   0.13846
H          H       0.91012   0.00158   0.61421   0.13902
H          H       0.22748   0.40469   0.13345   0.29503
H          H       0.12096   0.40534   0.21151   0.32129
H          H       0.87532   0.36347   0.62060   0.37794
H          H       0.56959   0.41587   0.96197   0.12814
H          H       0.85164   0.47225   0.22204   0.13728
H          H       0.09079   0.38699   0.00098   0.13938
H          H       0.82334   0.72828   0.59484   0.29833
H          H       0.71643   0.80616   0.59493   0.32048
H          H       0.51308   0.25707   0.63601   0.37614
H          H       0.15433   0.54617   0.58408   0.12763
H          H       0.38041   0.74971   0.52775   0.13756
H          H       0.70439   0.61367   0.61279   0.13869
H          H       0.09334   0.86606   0.27109   0.29743
H          H       0.90882   0.78808   0.19342   0.32055
H          H       0.25490   0.37894   0.74268   0.37642
H          H       0.60843   0.03823   0.45416   0.12595
H          H       0.62892   0.77772   0.25013   0.13858
H          H       0.08989  -0.00158   0.38579   0.13904
C          C       0.17275   0.62053   0.12176   0.60312
C          C       0.16850   0.59816   0.02736  -0.03096
C          C       0.31341   0.57986   0.99429  -0.11745
C          C       0.30701   0.55640   0.90505  -0.01552
C          C       0.46683   0.54223   0.87198   0.58486
C          C       0.15492   0.54936   0.84821  -0.19041
C          C       0.01299   0.57134   0.88294   0.26402
C          C       0.01967   0.59613   0.97231  -0.18901
C          C       0.55200   0.50106   0.37921   0.60333
C          C       0.56979   0.42914   0.40173  -0.02864
C          C       0.73296   0.41431   0.42005  -0.11677
C          C       0.75023   0.34851   0.44344  -0.01892
C          C       0.92469   0.32991   0.45783   0.58368
C          C       0.60499   0.29884   0.45049  -0.18907
C          C       0.44107   0.31168   0.42856   0.26392
C          C       0.42291   0.37629   0.40384  -0.18893
C          C       0.05054   0.87820   0.49908   0.60017
C          C       0.14086   0.97281   0.57086  -0.02476
C          C       0.31891   0.00572   0.58560  -0.11683
C          C       0.40242   0.09492   0.65150  -0.01853
C          C       0.59553   0.12792   0.67041   0.58705
C          C       0.30728   0.15198   0.70126  -0.19268
C          C       0.13054   0.11746   0.68855   0.26525
C          C       0.04738   0.02805   0.62395  -0.19091
C          C       0.82725   0.37947   0.87824   0.60327
C          C       0.83150   0.40183   0.97264  -0.03104
C          C       0.68659   0.42014   0.00570  -0.11743
C          C       0.69300   0.44360   0.09495  -0.01541
C          C       0.53317   0.45777   0.12802   0.58487
C          C       0.84508   0.45064   0.15179  -0.19048
C          C       0.98702   0.42866   0.11706   0.26406
C          C       0.98033   0.40387   0.02769  -0.18885
C          C       0.44800   0.49894   0.62079   0.60328
C          C       0.43021   0.57086   0.59827  -0.02858
C          C       0.26704   0.58569   0.57995  -0.11685
C          C       0.24977   0.65148   0.55656  -0.01896
C          C       0.07532   0.67009   0.54217   0.58375
C          C       0.39501   0.70116   0.54951  -0.18907
C          C       0.55893   0.68832   0.57143   0.26394
C          C       0.57709   0.62370   0.59616  -0.18894
C          C       0.94947   0.12180   0.50092   0.60011
C          C       0.85915   0.02719   0.42914  -0.02476
C          C       0.68109   0.99428   0.41439  -0.11698
C          C       0.59758   0.90507   0.34850  -0.01843
C          C       0.40447   0.87207   0.32959   0.58709
C          C       0.69272   0.84802   0.29874  -0.19276
C          C       0.86946   0.88254   0.31145   0.26533
C          C       0.95263   0.97194   0.37604  -0.19091
N          N       0.85632   0.56668   0.82740  -0.61349
N          N       0.28918   0.26083   0.43331  -0.61593
N          N       0.02963   0.17314   0.73959  -0.61553
N          N       0.14368   0.43332   0.17260  -0.61354
N          N       0.71082   0.73917   0.56669  -0.61589
N          N       0.97037   0.82686   0.26041  -0.61547
O          O       0.29871   0.60665   0.16314  -0.58002
O          O       0.05045   0.65247   0.15376  -0.57877
O          O       0.44191   0.47352   0.79183  -0.60178
O          O       0.60962   0.59651   0.92128  -0.52275
O          O       0.13227   0.62126   0.31787  -0.89653
O          O       0.69179   0.55680   0.39396  -0.57983
O          O       0.39811   0.50047   0.34615  -0.57952
O          O       0.96769   0.31792   0.52616  -0.59986
O          O       0.01452   0.32578   0.40426  -0.52237
O          O       0.50984   0.69662   0.37913  -0.89399
O          O       0.13375   0.83708   0.44287  -0.57849
O          O       0.89776   0.84578   0.50021  -0.57871
O          O       0.65037   0.20812   0.68195  -0.60189
O          O       0.68967   0.07885   0.67549  -0.52335
O          O       0.81474   0.68237   0.30388  -0.89452
O          O       0.70130   0.39335   0.83686  -0.58014
O          O       0.94955   0.34753   0.84624  -0.57873
O          O       0.55810   0.52648   0.20817  -0.60193
O          O       0.39038   0.40349   0.07872  -0.52273
O          O       0.86773   0.37874   0.68213  -0.89654
O          O       0.30821   0.44320   0.60604  -0.57989
O          O       0.60190   0.49953   0.65385  -0.57944
O          O       0.03231   0.68207   0.47384  -0.59990
O          O       0.98549   0.67422   0.59574  -0.52243
O          O       0.49016   0.30338   0.62087  -0.89405
O          O       0.86625   0.16292   0.55713  -0.57855
O          O       0.10224   0.15422   0.49979  -0.57859
O          O       0.34963   0.79187   0.31804  -0.60179
O          O       0.31034   0.92114   0.32451  -0.52351
O          O       0.18526   0.31762   0.69611  -0.89445

