data_crystal

_audit_creation_method 'AiiDA-DDEC plugin'

_cell_length_a        10.56026
_cell_length_b        11.33656
_cell_length_c        14.66788

_cell_angle_alpha     113.14523
_cell_angle_beta     106.59549
_cell_angle_gamma     93.70675

_symmetry_space_group_name_Hall 'P 1'
_symmetry_space_group_name_H-M  'P 1'

loop_
_symmetry_equiv_pos_as_xyz
 'x,y,z'

loop_
_atom_site_label
_atom_site_type_symbol
_atom_site_fract_x
_atom_site_fract_y
_atom_site_fract_z
_atom_site_charge
Gd         Gd      0.30483   0.51330   0.92307   2.01832
Gd         Gd      0.21127   0.35232   0.62152   1.99269
Gd         Gd      0.69518   0.48670   0.07693   2.01836
Gd         Gd      0.78873   0.64767   0.37848   1.99269
H          H       0.91288   0.64216   0.02268   0.31520
H          H       0.75682   0.67392   0.00352   0.31966
H          H       0.13436   0.84785   0.50349   0.30375
H          H       0.16781   0.01762   0.56215   0.30385
H          H       0.59065   0.07111   0.42995   0.29354
H          H       0.49533   0.17662   0.49352   0.30888
H          H       0.52934   0.35728   0.64115   0.12017
H          H       0.72408   0.31495   0.57762   0.12192
H          H       0.99362   0.54250   0.89565   0.13931
H          H       0.35165   0.12992   0.92783   0.12049
H          H       0.35604   0.91202   0.93382   0.12623
H          H       0.19353   0.72284   0.59534   0.13098
H          H       0.04181   0.01346   0.27236   0.11577
H          H       0.05154   0.82301   0.11415   0.10618
H          H       0.48164   0.89226   0.25759   0.12779
H          H       0.08713   0.35783   0.97732   0.31494
H          H       0.24319   0.32607   0.99648   0.31986
H          H       0.86565   0.15214   0.49651   0.30374
H          H       0.83220   0.98238   0.43785   0.30402
H          H       0.40936   0.92889   0.57005   0.29335
H          H       0.50468   0.82338   0.50648   0.30898
H          H       0.47067   0.64272   0.35885   0.12025
H          H       0.27593   0.68505   0.42238   0.12191
H          H       0.00639   0.45749   0.10435   0.13921
H          H       0.64836   0.87007   0.07217   0.12048
H          H       0.64397   0.08798   0.06618   0.12615
H          H       0.80647   0.27716   0.40466   0.13091
H          H       0.95820   0.98654   0.72764   0.11587
H          H       0.94847   0.17699   0.88585   0.10624
H          H       0.51836   0.10773   0.74241   0.12765
C          C       0.53059   0.48354   0.83655   0.65729
C          C       0.65041   0.47212   0.80330  -0.14126
C          C       0.63166   0.39750   0.69615  -0.06960
C          C       0.73971   0.37262   0.66052  -0.11184
C          C       0.87116   0.42222   0.73388  -0.00343
C          C       0.98950   0.39440   0.69974   0.62243
C          C       0.89182   0.49956   0.83985  -0.19826
C          C       0.78348   0.52727   0.87605   0.28855
C          C       0.25626   0.18101   0.76321   0.65365
C          C       0.26631   0.04984   0.75944  -0.17069
C          C       0.31514   0.03935   0.85581  -0.07309
C          C       0.31891   0.91949   0.85953  -0.13587
C          C       0.27224   0.80459   0.76394  -0.01240
C          C       0.27013   0.67281   0.76392   0.65548
C          C       0.22787   0.81239   0.66813  -0.20645
C          C       0.22595   0.93376   0.66284   0.29499
C          C       0.24116   0.17535   0.44042   0.57187
C          C       0.25554   0.06274   0.35300  -0.17037
C          C       0.13727   0.98537   0.26779  -0.06815
C          C       0.14210   0.87906   0.18110  -0.15838
C          C       0.26814   0.84621   0.17863  -0.00065
C          C       0.27765   0.73221   0.08680   0.56807
C          C       0.38587   0.91939   0.26189  -0.21547
C          C       0.38392   0.03006   0.35073   0.30902
C          C       0.46941   0.51646   0.16345   0.65729
C          C       0.34960   0.52787   0.19670  -0.14136
C          C       0.36835   0.60249   0.30385  -0.06939
C          C       0.26029   0.62737   0.33948  -0.11191
C          C       0.12885   0.57777   0.26612  -0.00346
C          C       0.01050   0.60559   0.30026   0.62262
C          C       0.10818   0.50043   0.16015  -0.19839
C          C       0.21653   0.47272   0.12395   0.28870
C          C       0.74375   0.81899   0.23679   0.65351
C          C       0.73369   0.95015   0.24056  -0.17074
C          C       0.68486   0.96064   0.14419  -0.07305
C          C       0.68110   0.08051   0.14047  -0.13570
C          C       0.72777   0.19541   0.23606  -0.01259
C          C       0.72988   0.32718   0.23608   0.65575
C          C       0.77214   0.18761   0.33187  -0.20649
C          C       0.77406   0.06624   0.33716   0.29516
C          C       0.75885   0.82465   0.55958   0.57176
C          C       0.74447   0.93726   0.64700  -0.17046
C          C       0.86274   0.01462   0.73221  -0.06791
C          C       0.85790   0.12093   0.81890  -0.15825
C          C       0.73186   0.15379   0.82137  -0.00078
C          C       0.72236   0.26779   0.91320   0.56834
C          C       0.61414   0.08060   0.73811  -0.21573
C          C       0.61609   0.96994   0.64927   0.30920
N          N       0.81208   0.60251   0.98521  -0.67825
N          N       0.19269   0.93326   0.56443  -0.60271
N          N       0.50169   0.10130   0.42930  -0.59270
N          N       0.18793   0.39749   0.01479  -0.67822
N          N       0.80732   0.06673   0.43557  -0.60287
N          N       0.49832   0.89869   0.57070  -0.59274
O          O       0.54372   0.54117   0.93492  -0.68154
O          O       0.41200   0.43483   0.76827  -0.71092
O          O       0.10807   0.42847   0.76960  -0.74110
O          O       0.97484   0.33750   0.60184  -0.60970
O          O       0.28652   0.27985   0.85183  -0.65253
O          O       0.21387   0.18983   0.67431  -0.68437
O          O       0.30624   0.66673   0.85207  -0.64562
O          O       0.23128   0.57220   0.67354  -0.68744
O          O       0.12360   0.19660   0.44386  -0.64461
O          O       0.34665   0.25571   0.51840  -0.65717
O          O       0.39390   0.70769   0.08487  -0.61914
O          O       0.17005   0.65756   0.01124  -0.64247
O          O       0.45629   0.45883   0.06508  -0.68154
O          O       0.58801   0.56516   0.23173  -0.71081
O          O       0.89194   0.57152   0.23040  -0.74124
O          O       0.02517   0.66249   0.39816  -0.60978
O          O       0.71349   0.72014   0.14817  -0.65246
O          O       0.78614   0.81017   0.32569  -0.68424
O          O       0.69377   0.33327   0.14793  -0.64576
O          O       0.76873   0.42779   0.32646  -0.68758
O          O       0.87641   0.80340   0.55614  -0.64426
O          O       0.65336   0.74429   0.48160  -0.65729
O          O       0.60611   0.29231   0.91513  -0.61957
O          O       0.82996   0.34243   0.98876  -0.64226

