data_crystal

_audit_creation_method 'AiiDA-DDEC plugin'

_cell_length_a         9.23030
_cell_length_b        10.15068
_cell_length_c        27.32707

_cell_angle_alpha     90.00000
_cell_angle_beta     90.00000
_cell_angle_gamma     90.00000

_symmetry_space_group_name_Hall 'P 1'
_symmetry_space_group_name_H-M  'P 1'

loop_
_symmetry_equiv_pos_as_xyz
 'x,y,z'

loop_
_atom_site_label
_atom_site_type_symbol
_atom_site_fract_x
_atom_site_fract_y
_atom_site_fract_z
_atom_site_charge
Zn         Zn      0.08018   0.89123   0.55146   0.67561
Zn         Zn      0.58017   0.60877   0.44855   0.67563
Zn         Zn      0.91982   0.10877   0.05146   0.67560
Zn         Zn      0.41982   0.39123   0.94855   0.67559
Zn         Zn      0.91982   0.10877   0.44855   0.67561
Zn         Zn      0.41982   0.39123   0.55146   0.67561
Zn         Zn      0.08018   0.89123   0.94855   0.67557
Zn         Zn      0.58017   0.60877   0.05146   0.67563
H          H       0.97461   0.64242   0.65906   0.11196
H          H       0.86102   0.45853   0.70436   0.11131
H          H       0.25434   0.02131   0.70458   0.10999
H          H       0.31350   0.81713   0.45708   0.12612
H          H       0.19948   0.61445   0.58601   0.13243
H          H       0.47461   0.85758   0.34094   0.11197
H          H       0.36102   0.04147   0.29564   0.11138
H          H       0.75434   0.47869   0.29542   0.10996
H          H       0.81350   0.68288   0.54292   0.12597
H          H       0.69948   0.88555   0.41399   0.13245
H          H       0.02539   0.35758   0.15906   0.11191
H          H       0.13898   0.54148   0.20436   0.11132
H          H       0.74565   0.97869   0.20458   0.10995
H          H       0.68649   0.18288   0.95708   0.12595
H          H       0.80052   0.38555   0.08601   0.13243
H          H       0.52539   0.14242   0.84094   0.11195
H          H       0.63898   0.95853   0.79564   0.11125
H          H       0.24565   0.52132   0.79542   0.11001
H          H       0.18650   0.31712   0.04292   0.12606
H          H       0.30052   0.11445   0.91399   0.13242
H          H       0.02539   0.35758   0.34094   0.11194
H          H       0.13898   0.54148   0.29564   0.11135
H          H       0.74565   0.97869   0.29542   0.10997
H          H       0.68649   0.18288   0.54292   0.12608
H          H       0.80052   0.38555   0.41399   0.13243
H          H       0.52539   0.14242   0.65906   0.11192
H          H       0.63898   0.95853   0.70436   0.11124
H          H       0.24566   0.52132   0.70458   0.10998
H          H       0.18650   0.31712   0.45708   0.12608
H          H       0.30052   0.11445   0.58601   0.13243
H          H       0.97461   0.64242   0.84094   0.11198
H          H       0.86102   0.45853   0.79564   0.11133
H          H       0.25434   0.02131   0.79542   0.11002
H          H       0.31350   0.81713   0.04292   0.12611
H          H       0.19948   0.61445   0.91399   0.13240
H          H       0.47461   0.85758   0.15906   0.11192
H          H       0.36102   0.04147   0.20436   0.11136
H          H       0.75434   0.47869   0.20458   0.10997
H          H       0.81350   0.68288   0.95708   0.12590
H          H       0.69948   0.88555   0.08601   0.13245
C          C       0.12233   0.86795   0.64356   0.56380
C          C       0.11885   0.85149   0.69801  -0.07586
C          C       0.04384   0.74815   0.72349   0.05087
C          C       0.97476   0.64199   0.69875  -0.14024
C          C       0.91065   0.53988   0.72417  -0.08066
C          C       0.19484   0.94586   0.72437  -0.08946
C          C       0.30902   0.74565   0.48650   0.14536
C          C       0.25041   0.64307   0.55191   0.15234
C          C       0.62233   0.63206   0.35644   0.56387
C          C       0.61885   0.64851   0.30199  -0.07582
C          C       0.54384   0.75186   0.27651   0.05094
C          C       0.47476   0.85801   0.30125  -0.14014
C          C       0.41065   0.96012   0.27583  -0.08062
C          C       0.69484   0.55414   0.27563  -0.08967
C          C       0.80902   0.75436   0.51350   0.14549
C          C       0.75040   0.85694   0.44809   0.15224
C          C       0.87766   0.13205   0.14356   0.56374
C          C       0.88115   0.14851   0.19801  -0.07590
C          C       0.95616   0.25185   0.22349   0.05091
C          C       0.02524   0.35801   0.19875  -0.14013
C          C       0.08935   0.46012   0.22417  -0.08065
C          C       0.80516   0.05414   0.22437  -0.08952
C          C       0.69098   0.25436   0.98650   0.14546
C          C       0.74959   0.35693   0.05191   0.15217
C          C       0.37767   0.36795   0.85644   0.56376
C          C       0.38115   0.35149   0.80199  -0.07587
C          C       0.45616   0.24815   0.77651   0.05088
C          C       0.52523   0.14199   0.80125  -0.14010
C          C       0.58934   0.03988   0.77583  -0.08063
C          C       0.30516   0.44586   0.77563  -0.08949
C          C       0.19098   0.24565   0.01350   0.14550
C          C       0.24959   0.14307   0.94809   0.15219
C          C       0.87767   0.13206   0.35644   0.56375
C          C       0.88114   0.14851   0.30199  -0.07594
C          C       0.95616   0.25185   0.27651   0.05097
C          C       0.02524   0.35801   0.30125  -0.14017
C          C       0.08935   0.46012   0.27583  -0.08062
C          C       0.80516   0.05414   0.27563  -0.08948
C          C       0.69098   0.25435   0.51350   0.14540
C          C       0.74959   0.35693   0.44809   0.15221
C          C       0.37767   0.36795   0.64356   0.56384
C          C       0.38115   0.35149   0.69801  -0.07594
C          C       0.45616   0.24815   0.72349   0.05093
C          C       0.52523   0.14199   0.69875  -0.14013
C          C       0.58934   0.03988   0.72417  -0.08067
C          C       0.30516   0.44586   0.72437  -0.08946
C          C       0.19098   0.24565   0.48650   0.14544
C          C       0.24959   0.14307   0.55191   0.15234
C          C       0.12233   0.86795   0.85644   0.56376
C          C       0.11885   0.85149   0.80199  -0.07587
C          C       0.04384   0.74815   0.77651   0.05088
C          C       0.97476   0.64199   0.80125  -0.14012
C          C       0.91065   0.53988   0.77583  -0.08071
C          C       0.19484   0.94586   0.77563  -0.08948
C          C       0.30902   0.74565   0.01350   0.14544
C          C       0.25041   0.64307   0.94809   0.15225
C          C       0.62233   0.63205   0.14356   0.56398
C          C       0.61885   0.64851   0.19801  -0.07588
C          C       0.54384   0.75186   0.22349   0.05094
C          C       0.47476   0.85801   0.19875  -0.14010
C          C       0.41065   0.96012   0.22417  -0.08060
C          C       0.69484   0.55414   0.22437  -0.08965
C          C       0.80902   0.75436   0.98650   0.14551
C          C       0.75041   0.85693   0.05191   0.15225
N          N       0.21795   0.75172   0.52532  -0.30833
N          N       0.35574   0.57333   0.53077  -0.18506
N          N       0.39356   0.63920   0.48857  -0.19620
N          N       0.71795   0.74829   0.47468  -0.30847
N          N       0.85574   0.92668   0.46923  -0.18478
N          N       0.89356   0.86081   0.51143  -0.19629
N          N       0.78205   0.24828   0.02532  -0.30848
N          N       0.64426   0.42667   0.03077  -0.18474
N          N       0.60643   0.36081   0.98857  -0.19616
N          N       0.28205   0.25172   0.97468  -0.30841
N          N       0.14426   0.07333   0.96923  -0.18485
N          N       0.10643   0.13919   0.01143  -0.19623
N          N       0.78205   0.24828   0.47468  -0.30854
N          N       0.64426   0.42667   0.46923  -0.18482
N          N       0.60643   0.36081   0.51143  -0.19615
N          N       0.28205   0.25172   0.52532  -0.30843
N          N       0.14426   0.07333   0.53077  -0.18499
N          N       0.10643   0.13920   0.48857  -0.19625
N          N       0.21795   0.75172   0.97468  -0.30830
N          N       0.35574   0.57333   0.96923  -0.18502
N          N       0.39356   0.63920   0.01143  -0.19620
N          N       0.71795   0.74828   0.02532  -0.30845
N          N       0.85574   0.92668   0.03077  -0.18476
N          N       0.89356   0.86081   0.98857  -0.19628
O          O       0.01401   0.82616   0.61696  -0.55033
O          O       0.22799   0.92638   0.62377  -0.55368
O          O       0.51400   0.67385   0.38304  -0.55023
O          O       0.72799   0.57363   0.37623  -0.55389
O          O       0.98599   0.17385   0.11696  -0.55039
O          O       0.77201   0.07362   0.12377  -0.55356
O          O       0.48599   0.32616   0.88304  -0.55035
O          O       0.27201   0.42638   0.87623  -0.55360
O          O       0.98599   0.17385   0.38304  -0.55034
O          O       0.77200   0.07362   0.37623  -0.55359
O          O       0.48599   0.32616   0.61696  -0.55036
O          O       0.27201   0.42638   0.62377  -0.55367
O          O       0.01400   0.82616   0.88304  -0.55033
O          O       0.22799   0.92638   0.87623  -0.55363
O          O       0.51400   0.67385   0.11696  -0.55029
O          O       0.72799   0.57363   0.12377  -0.55391

