data_crystal

_audit_creation_method 'AiiDA-DDEC plugin'

_cell_length_a        12.19977
_cell_length_b        17.20932
_cell_length_c        15.44182

_cell_angle_alpha     80.43402
_cell_angle_beta     61.35722
_cell_angle_gamma     66.95953

_symmetry_space_group_name_Hall 'P 1'
_symmetry_space_group_name_H-M  'P 1'

loop_
_symmetry_equiv_pos_as_xyz
 'x,y,z'

loop_
_atom_site_label
_atom_site_type_symbol
_atom_site_fract_x
_atom_site_fract_y
_atom_site_fract_z
_atom_site_charge
Gd         Gd      0.80877   0.22545   0.95012   1.93842
Gd         Gd      0.32157   0.52767   0.25980   1.93610
Gd         Gd      0.01117   0.26233   0.51936   1.93840
Gd         Gd      0.10794   0.99160   0.20793   1.92058
Gd         Gd      0.18666   0.78253   0.01704   1.94726
Gd         Gd      0.70128   0.44527   0.75251   1.94527
Gd         Gd      0.99433   0.71871   0.48936   1.92651
Gd         Gd      0.90170   0.03607   0.74245   1.94983
H          H       0.28115   0.41310   0.11511   0.11693
H          H       0.21002   0.31700   0.06237   0.11612
H          H       0.38367   0.19347   0.94921   0.12568
H          H       0.71741   0.03847   0.11352   0.12305
H          H       0.66680   0.90792   0.19595   0.11453
H          H       0.78436   0.82165   0.29775   0.12102
H          H       0.80135   0.11630   0.38229   0.11195
H          H       0.55869   0.19473   0.49565   0.11672
H          H       0.49754   0.30000   0.61810   0.12274
H          H       0.86668   0.46028   0.43329   0.11231
H          H       0.73954   0.58001   0.35930   0.10664
H          H       0.85413   0.67708   0.24397   0.12423
H          H       0.71663   0.60420   0.85061   0.10602
H          H       0.78413   0.71125   0.88814   0.11336
H          H       0.60453   0.84137   0.99056   0.12975
H          H       0.24086   0.95116   0.90544   0.10252
H          H       0.35375   0.05601   0.81505   0.11775
H          H       0.28096   0.15298   0.69444   0.13080
H          H       0.19760   0.86794   0.62736   0.10959
H          H       0.43801   0.76913   0.54088   0.11422
H          H       0.49894   0.65540   0.42598   0.11958
H          H       0.12651   0.55056   0.57691   0.10038
H          H       0.24453   0.46213   0.67591   0.11565
H          H       0.15548   0.35476   0.79143   0.13067
C          C       0.48769   0.33379   0.04033   0.07338
C          C       0.35379   0.35674   0.06870  -0.14080
C          C       0.31489   0.30368   0.03670  -0.07151
C          C       0.41148   0.23491   0.97380  -0.10437
C          C       0.54832   0.21583   0.94381   0.06935
C          C       0.54389   0.37896   0.07409   0.61799
C          C       0.66062   0.14931   0.87879   0.47556
C          C       0.85665   0.02063   0.16801   0.06098
C          C       0.76418  -0.00004   0.15866  -0.11453
C          C       0.73519   0.92718   0.20565  -0.09856
C          C       0.79965   0.87924   0.26152  -0.08865
C          C       0.88912   0.90435   0.27141   0.04739
C          C       0.90716   0.08883   0.11418   0.60670
C          C       0.96608   0.86000   0.32408   0.55112
C          C       0.86667   0.18362   0.44247   0.07004
C          C       0.77184   0.16374   0.43597  -0.13379
C          C       0.63550   0.20773   0.50032  -0.07872
C          C       0.60161   0.26695   0.56839  -0.09942
C          C       0.70258   0.28388   0.57309   0.06413
C          C       0.01395   0.14421   0.37929   0.63012
C          C       0.68615   0.34149   0.63877   0.48352
C          C       0.04368   0.49085   0.35622   0.05995
C          C       0.91309   0.50278   0.38230  -0.10465
C          C       0.84126   0.57027   0.34164  -0.09413
C          C       0.90394   0.62409   0.27758  -0.10011
C          C       0.03475   0.61073   0.25538   0.05399
C          C       0.13178   0.42179   0.39000   0.60165
C          C       0.11144   0.66110   0.19020   0.53488
C          C       0.51005   0.68203   0.91814   0.07341
C          C       0.64305   0.66341   0.88987  -0.13583
C          C       0.67954   0.72319   0.91329  -0.08038
C          C       0.58113   0.79541   0.96862  -0.09539
C          C       0.44617   0.81090  -0.00212   0.06112
C          C       0.45595   0.62612   0.89831   0.63426
C          C       0.33417   0.87963   0.05986   0.47745
C          C       0.12136   0.98606   0.82937   0.05465
C          C       0.21642   0.99145   0.85007  -0.12794
C          C       0.27809   0.05161   0.80024  -0.08714
C          C       0.23896   0.10477   0.73395  -0.07729
C          C       0.14032   0.09731   0.71673   0.04964
C          C       0.04871   0.92660   0.87545   0.61236
C          C       0.09170   0.14950   0.65107   0.48664
C          C       0.13229   0.80231   0.56555   0.07319
C          C       0.22674   0.81626   0.57920  -0.13208
C          C       0.36189   0.76099   0.52997  -0.08617
C          C       0.39610   0.69733   0.46680  -0.10093
C          C       0.29601   0.68619   0.45499   0.06763
C          C       0.98750   0.85494   0.61019   0.63175
C          C       0.31514   0.62577   0.39098   0.48554
C          C       0.96589   0.50272   0.65118   0.06312
C          C       0.08550   0.50773   0.63224  -0.12468
C          C       0.15506   0.45526   0.68494  -0.08742
C          C       0.10635   0.39599   0.74869  -0.09004
C          C       0.98801   0.39052   0.76130   0.07108
C          C       0.87637   0.55763   0.60879   0.60591
C          C       0.93208   0.32981   0.82040   0.48866
N          N       0.58303   0.26500   0.98184  -0.48020
N          N       0.91724   0.97510   0.22495  -0.51059
N          N       0.83541   0.24211   0.50806  -0.48026
N          N       0.10563   0.54376   0.29343  -0.51763
N          N       0.41282   0.75506   0.96819  -0.49590
N          N       0.08304   0.03698   0.76272  -0.51465
N          N       0.16321   0.73708   0.50815  -0.49442
N          N       0.91485   0.44592   0.71546  -0.50943
O          O       0.66626   0.34446   0.05387  -0.61223
O          O       0.46831   0.44942   0.12154  -0.68478
O          O       0.78081   0.14096   0.87009  -0.80416
O          O       0.66590   0.09753   0.82348  -0.63772
O          O       0.00268   0.09402   0.12348  -0.62848
O          O       0.85457   0.13825   0.06139  -0.69766
O          O       0.05260   0.88885   0.31886  -0.67095
O          O       0.94581   0.79410   0.37492  -0.69505
O          O       0.08870   0.17225   0.39060  -0.63144
O          O       0.06093   0.08499   0.31717  -0.68472
O          O       0.80286   0.34492   0.62442  -0.80670
O          O       0.57948   0.38968   0.70878  -0.62649
O          O       0.25027   0.42066   0.35886  -0.63117
O          O       0.08894   0.36567   0.44708  -0.69901
O          O       0.23449   0.63869   0.17415  -0.67975
O          O       0.05841   0.72591   0.14790  -0.68059
O          O       0.33152   0.65785   0.92184  -0.62771
O          O       0.53203   0.55184   0.86144  -0.68390
O          O       0.21263   0.88263   0.07826  -0.78580
O          O       0.33570   0.93692   0.10337  -0.63485
O          O       0.95717   0.93488   0.85295  -0.61661
O          O       0.07929   0.86917   0.93383  -0.70736
O          O      -0.00036   0.13643   0.63787  -0.75815
O          O       0.13338   0.20955   0.60419  -0.63233
O          O       0.91173   0.82730   0.59908  -0.63620
O          O       0.94647   0.92471   0.65407  -0.68835
O          O       0.20146   0.62509   0.39702  -0.79235
O          O       0.42535   0.57441   0.32728  -0.62704
O          O       0.77128   0.54213   0.63382  -0.62682
O          O       0.90313   0.61900   0.55281  -0.70116
O          O       0.81306   0.33719   0.83009  -0.76883
O          O       0.98771   0.26904   0.86445  -0.62578

