data_crystal

_audit_creation_method 'AiiDA-DDEC plugin'

_cell_length_a        10.20866
_cell_length_b        11.46550
_cell_length_c        17.56163

_cell_angle_alpha     90.03513
_cell_angle_beta     90.04512
_cell_angle_gamma     109.56903

_symmetry_space_group_name_Hall 'P 1'
_symmetry_space_group_name_H-M  'P 1'

loop_
_symmetry_equiv_pos_as_xyz
 'x,y,z'

loop_
_atom_site_label
_atom_site_type_symbol
_atom_site_fract_x
_atom_site_fract_y
_atom_site_fract_z
_atom_site_charge
Tb         Tb      0.01070   0.17728   0.50732   2.05418
Tb         Tb      0.98712   0.32003   0.00801   2.06078
Tb         Tb      0.98791   0.82161   0.49065   2.05780
Tb         Tb      0.01248   0.68547   0.99220   2.06081
H          H       0.89917   0.29415   0.82055   0.14338
H          H       0.09740   0.65020   0.71395   0.14363
H          H       0.84769   0.20266   0.68885   0.13652
H          H       0.04364   0.54297   0.58732   0.13061
H          H       0.42814   0.94419   0.38870   0.14084
H          H       0.46902   0.29264   0.49669   0.15426
H          H       0.69132   0.02150   0.37264   0.14032
H          H       0.72779   0.35221   0.48095   0.13184
H          H       0.10213   0.20589   0.32066   0.14381
H          H       0.89998   0.85063   0.21312   0.14478
H          H       0.15410   0.29756   0.18894   0.13836
H          H       0.95433   0.95829   0.08670   0.12929
H          H       0.56991   0.55661   0.88931   0.14060
H          H       0.53385   0.20929   0.99695   0.15351
H          H       0.30659   0.47686   0.87346   0.14064
H          H       0.27477   0.14688   0.98089   0.13018
H          H       0.10326   0.70966   0.18011   0.14321
H          H       0.90201   0.35226   0.28467   0.14417
H          H       0.15550   0.79861   0.31262   0.13551
H          H       0.95608   0.45743   0.41207   0.13063
H          H       0.57222   0.05507   0.61045   0.14104
H          H       0.52978   0.70628   0.50254   0.15351
H          H       0.30922   0.97838   0.62703   0.14007
H          H       0.27133   0.64692   0.51915   0.13140
H          H       0.89709   0.79185   0.67908   0.14474
H          H       0.10007   0.14979   0.78316   0.14510
H          H       0.84490   0.70406   0.81172   0.13741
H          H       0.04535   0.04598   0.91073   0.13014
H          H       0.42787   0.44679   0.11044   0.14075
H          H       0.46798   0.79524   0.00301   0.15324
H          H       0.69126   0.52442   0.12645   0.14095
H          H       0.72672   0.85509   0.01880   0.13143
C          C       0.03207   0.53988   0.85481   0.61578
C          C       0.00536   0.48027   0.77808  -0.01775
C          C       0.93397   0.35283   0.77079  -0.11468
C          C       0.04475   0.55062   0.71149  -0.10917
C          C       0.90380   0.29978   0.69943  -0.02373
C          C       0.01614   0.49408   0.64094  -0.01743
C          C       0.27556   0.06837   0.46151   0.62818
C          C       0.42825   0.11280   0.44382  -0.02291
C          C       0.49119   0.03614   0.40781  -0.11875
C          C       0.51331   0.22976   0.46868  -0.10290
C          C       0.63386   0.07530   0.39874  -0.04529
C          C       0.65586   0.26537   0.46018  -0.03047
C          C       0.96695   0.96019   0.35385   0.61121
C          C       0.99388   0.02023   0.27753  -0.01756
C          C       0.06669   0.14750   0.27073  -0.11185
C          C       0.95347   0.95011   0.21084  -0.10803
C          C       0.09717   0.20064   0.19951  -0.02298
C          C       0.98245   0.00686   0.14045  -0.01557
C          C       0.72534   0.43377   0.96203   0.63097
C          C       0.57232   0.38882   0.94442  -0.02323
C          C       0.50792   0.46446   0.90853  -0.11972
C          C       0.48838   0.27142   0.96909  -0.10428
C          C       0.36510   0.42392   0.89949  -0.04387
C          C       0.34574   0.23432   0.96050  -0.03079
C          C       0.96800   0.46422   0.14499   0.61338
C          C       0.99547   0.52318   0.22174  -0.01550
C          C       0.06805   0.65028   0.22958  -0.11556
C          C       0.95539   0.45167   0.28784  -0.10855
C          C       0.09858   0.70191   0.30125  -0.02225
C          C       0.98421   0.50692   0.35869  -0.01485
C          C       0.72386   0.93116   0.53677   0.62561
C          C       0.57140   0.88645   0.55516  -0.02156
C          C       0.50880   0.96318   0.59141  -0.12113
C          C       0.48592   0.76941   0.53063  -0.10217
C          C       0.36620   0.92427   0.60080  -0.04514
C          C       0.34344   0.73389   0.53962  -0.03243
C          C       0.03314   0.03860   0.64412   0.61230
C          C       0.00594   0.97863   0.72047  -0.01779
C          C       0.93274   0.85168   0.72843  -0.11322
C          C       0.04633   0.05045   0.78657  -0.10872
C          C       0.90200   0.80063   0.80024  -0.02173
C          C       0.01704   0.99584   0.85750  -0.01670
C          C       0.27448   0.57116   0.03802   0.62818
C          C       0.42744   0.61536   0.05561  -0.02000
C          C       0.49074   0.53878   0.09141  -0.12109
C          C       0.51237   0.73234   0.03088  -0.10420
C          C       0.63350   0.57810   0.10050  -0.04306
C          C       0.65495   0.76818   0.03944  -0.03209
N          N       0.94600   0.37005   0.63540   0.36796
N          N       0.71492   0.18807   0.42628   0.35974
N          N       0.22870   0.40535   0.46653   0.72678
N          N       0.05382   0.13068   0.13539   0.36652
N          N       0.28513   0.31067   0.92679   0.36005
N          N       0.77091   0.09338   0.96413   0.72808
N          N       0.05517   0.63064   0.36476   0.36529
N          N       0.28457   0.81145   0.57349   0.36064
N          N       0.77095   0.59362   0.53206   0.72754
N          N       0.94546   0.87225   0.86371   0.36586
N          N       0.71432   0.69112   0.07333   0.36070
N          N       0.23124   0.91024   0.03545   0.72568
O          O       0.91587   0.31897   0.56752  -0.59065
O          O       0.02309   0.47161   0.91335  -0.73039
O          O       0.05886   0.65634   0.85999  -0.61957
O          O       0.22749   0.14777   0.48920  -0.65148
O          O       0.20895   0.95378   0.44995  -0.67665
O          O       0.85117   0.22288   0.41995  -0.56950
O          O       0.20685   0.37265   0.53640  -0.51035
O          O       0.14213   0.33543   0.41734  -0.55537
O          O       0.32513   0.49816   0.44634  -0.37313
O          O       0.08433   0.18247   0.06772  -0.59271
O          O       0.98039   0.02844   0.41295  -0.73580
O          O       0.93609   0.84346   0.35899  -0.61009
O          O       0.77326   0.35403   0.98945  -0.65744
O          O       0.79192   0.54830   0.95059  -0.67417
O          O       0.14886   0.27452   0.92023  -0.56723
O          O       0.79226   0.12386   0.03449  -0.51551
O          O       0.85731   0.16574   0.91612  -0.55354
O          O       0.67550   0.00078   0.94256  -0.36878
O          O       0.08443   0.68097   0.43290  -0.59148
O          O       0.97632   0.53229   0.08646  -0.72891
O          O       0.94096   0.34773   0.13993  -0.62030
O          O       0.77160   0.85276   0.50734  -0.65292
O          O       0.79086   0.04545   0.54943  -0.67524
O          O       0.14854   0.77701   0.58005  -0.56492
O          O       0.79248   0.62315   0.46181  -0.50823
O          O       0.85730   0.66645   0.58027  -0.55907
O          O       0.67534   0.50139   0.55376  -0.37173
O          O       0.91544   0.82255   0.93198  -0.59352
O          O       0.01964   0.97137   0.58437  -0.74076
O          O       0.06432   0.15529   0.63992  -0.60690
O          O       0.22681   0.65117   0.01077  -0.65574
O          O       0.20777   0.45667   0.04938  -0.67332
O          O       0.85052   0.72631   0.08000  -0.57011
O          O       0.20792   0.88087   0.96505  -0.51391
O          O       0.14278   0.83976   0.08348  -0.55536
O          O       0.33028  -0.00022   0.05714  -0.36638

