data_crystal

_audit_creation_method 'AiiDA-DDEC plugin'

_cell_length_a         8.53504
_cell_length_b        10.67042
_cell_length_c        17.69869

_cell_angle_alpha     99.90799
_cell_angle_beta     97.30156
_cell_angle_gamma     99.66861

_symmetry_space_group_name_Hall 'P 1'
_symmetry_space_group_name_H-M  'P 1'

loop_
_symmetry_equiv_pos_as_xyz
 'x,y,z'

loop_
_atom_site_label
_atom_site_type_symbol
_atom_site_fract_x
_atom_site_fract_y
_atom_site_fract_z
_atom_site_charge
Eu         Eu      0.47505   0.85476   0.19652   1.75227
Eu         Eu      0.96463   0.80395   0.26015   1.78615
Eu         Eu      0.52510   0.14524   0.80337   1.75240
Eu         Eu      0.03536   0.19604   0.73977   1.78598
H          H       0.13754   0.50385   0.43775   0.11354
H          H       0.12816   0.29140   0.47998   0.11350
H          H       0.96141   0.09039   0.39463   0.11689
H          H       0.79571   0.31669   0.23259   0.13667
H          H       0.08365   0.85993   0.85936   0.11409
H          H       0.13789   0.70070   0.94278   0.12504
H          H       0.96834   0.66508   0.04574   0.11407
H          H       0.69075   0.94020   0.97757   0.13667
H          H       0.37985   0.87401   0.61433   0.10694
H          H       0.22050   0.72609   0.49434   0.10961
H          H       0.35150   0.67693   0.37771   0.12816
H          H       0.79138   0.93350   0.49894   0.12906
H          H       0.12068   0.52912   0.14399   0.04286
H          H       0.86216   0.49651   0.56208   0.11333
H          H       0.87178   0.70904   0.51984   0.11386
H          H       0.03873   0.90992   0.60531   0.11635
H          H       0.20404   0.68333   0.76729   0.13598
H          H       0.91654   0.14008   0.14063   0.11333
H          H       0.86225   0.29927   0.05719   0.12465
H          H       0.03173   0.33488   0.95422   0.11425
H          H       0.30945   0.05983   0.02239   0.13690
H          H       0.62047   0.12615   0.38574   0.10672
H          H       0.77969   0.27395   0.50577   0.10990
H          H       0.64866   0.32318   0.62236   0.12823
H          H       0.20882   0.06664   0.50104   0.12852
H          H       0.87922   0.47097   0.85600   0.04304
C          C       0.97642   0.54784   0.30576   0.53752
C          C       0.97023   0.42257   0.33184  -0.04241
C          C       0.06275   0.41565   0.40197  -0.07796
C          C       0.05833   0.29663   0.42512  -0.08242
C          C       0.96367   0.18397   0.37782  -0.07330
C          C       0.86912   0.19104   0.30831  -0.04284
C          C       0.87111   0.31072   0.28574  -0.09323
C          C       0.75863   0.07416   0.25990   0.58033
C          C       0.84721   0.00180   0.86139   0.61898
C          C       0.88158   0.90757   0.91172  -0.05788
C          C       0.00857   0.84079   0.90287  -0.05734
C          C       0.03920   0.75208   0.95010  -0.08306
C          C       0.94543   0.73197   0.00759  -0.07573
C          C       0.82046   0.80066   0.01782  -0.02399
C          C       0.78764   0.88732   0.96928  -0.08142
C          C       0.72578   0.78745   0.08210   0.60320
C          C       0.68438   0.00512   0.63677   0.62963
C          C       0.59526   0.91245   0.56458  -0.04991
C          C       0.43446   0.85277   0.56264  -0.04374
C          C       0.34630   0.76841   0.49566  -0.07143
C          C       0.41909   0.74098   0.43044  -0.07131
C          C       0.58038   0.79944   0.43205  -0.01419
C          C       0.65878   0.77051   0.36241   0.58989
C          C       0.66783   0.88693   0.49885  -0.09604
C          C       0.21204   0.61980   0.15907   0.49379
C          C       0.02368   0.45226   0.69413   0.53682
C          C       0.02963   0.57760   0.66805  -0.04288
C          C       0.93708   0.58462   0.59791  -0.07774
C          C       0.94151   0.70365   0.57473  -0.08297
C          C       0.03620   0.81629   0.62209  -0.07192
C          C       0.13064   0.80919   0.69162  -0.04418
C          C       0.12869   0.68946   0.71416  -0.09216
C          C       0.24126   0.92601   0.74009   0.57987
C          C       0.15307  -0.00177   0.13856   0.61815
C          C       0.11862   0.09246   0.08824  -0.05702
C          C       0.99161   0.15920   0.09710  -0.05676
C          C       0.96095   0.24790   0.04987  -0.08256
C          C       0.05472   0.26802   0.99238  -0.07601
C          C       0.17970   0.19935   0.98213  -0.02421
C          C       0.21256   0.11272   0.03067  -0.08205
C          C       0.27418   0.21258   0.91777   0.60432
C          C       0.31569   0.99494   0.36320   0.62821
C          C       0.40478   0.08779   0.43536  -0.04856
C          C       0.56566   0.14737   0.43736  -0.04355
C          C       0.65387   0.23163   0.50440  -0.07207
C          C       0.58110   0.25910   0.56962  -0.07166
C          C       0.41980   0.20066   0.56798  -0.01402
C          C       0.34131   0.22954   0.63760   0.58964
C          C       0.33233   0.11327   0.50114  -0.09587
C          C       0.78794   0.38026   0.84096   0.49338
O          O       0.07110   0.65051   0.34497  -0.48299
O          O       0.88905   0.55623   0.24322  -0.50006
O          O       0.64193   0.08717   0.21196  -0.51928
O          O       0.77635   0.95985   0.26940  -0.67763
O          O       0.94232   0.03071   0.81444  -0.57772
O          O       0.72172   0.05042   0.86792  -0.57563
O          O       0.59474   0.83060   0.07952  -0.54184
O          O       0.77736   0.73728   0.13844  -0.62202
O          O       0.83257   0.05127   0.63979  -0.60301
O          O       0.60188   0.03131   0.69049  -0.61311
O          O       0.57018   0.73645   0.29569  -0.55378
O          O       0.81052   0.78126   0.37148  -0.54253
O          O       0.34259   0.62469   0.13210  -0.48364
O          O       0.18327   0.71857   0.20359  -0.64804
O          O       0.92888   0.34968   0.65492  -0.48286
O          O       0.11111   0.44373   0.75661  -0.49895
O          O       0.35790   0.91285   0.78802  -0.51872
O          O       0.22381   0.04043   0.73066  -0.67703
O          O       0.05818   0.96932   0.18559  -0.57782
O          O       0.27847   0.94951   0.13196  -0.57450
O          O       0.40519   0.16936   0.92030  -0.54216
O          O       0.22246   0.26292   0.86154  -0.62235
O          O       0.16751   0.94856   0.36021  -0.60253
O          O       0.39816   0.96884   0.30945  -0.61242
O          O       0.42985   0.26366   0.70433  -0.55336
O          O       0.18955   0.21871   0.62850  -0.54260
O          O       0.65736   0.37536   0.86791  -0.48330
O          O       0.81682   0.28145   0.79651  -0.64839

