data_crystal

_audit_creation_method 'AiiDA-DDEC plugin'

_cell_length_a        13.02690
_cell_length_b        13.53850
_cell_length_c        15.93463

_cell_angle_alpha     111.54447
_cell_angle_beta     110.36039
_cell_angle_gamma     98.20130

_symmetry_space_group_name_Hall 'P 1'
_symmetry_space_group_name_H-M  'P 1'

loop_
_symmetry_equiv_pos_as_xyz
 'x,y,z'

loop_
_atom_site_label
_atom_site_type_symbol
_atom_site_fract_x
_atom_site_fract_y
_atom_site_fract_z
_atom_site_charge
Ag         Ag      0.72024   0.47070   0.94119   0.18891
Ag         Ag      0.27976   0.52931   0.05881   0.18882
H          H       0.93523   0.47967   0.11848   0.07035
H          H       0.99410   0.39035   0.22999   0.11994
H          H       0.65442   0.14702   0.05396   0.12060
H          H       0.60785   0.24984   0.95189   0.08672
H          H       0.16531   0.37898   0.43710   0.10432
H          H       0.27740   0.31748   0.42968   0.11398
H          H       0.29098   0.41219   0.54934   0.09552
H          H       0.79832   0.39756   0.30875   0.09095
H          H       0.90981   0.50686   0.42428   0.10890
H          H       0.82734   0.38798   0.42393   0.10370
H          H       0.50945   0.56801   0.91489   0.08244
H          H       0.30137   0.52092   0.80828   0.11278
H          H       0.31890   0.21077   0.60949   0.12325
H          H       0.52717   0.27114   0.72525   0.08347
H          H       0.68369   0.63932   0.11962   0.07081
H          H       0.73615   0.84055   0.23096   0.11984
H          H       0.89951   0.90735   0.05472   0.12114
H          H       0.84411   0.70213   0.95258   0.08667
H          H       0.77188   0.05850   0.43716   0.10614
H          H       0.65197   0.11189   0.42987   0.11381
H          H       0.75835   0.13744   0.54954   0.09642
H          H       0.00804   0.91119   0.30826   0.09131
H          H       0.01220   0.91761   0.42378   0.11051
H          H       0.09513   0.03581   0.42362   0.10407
H          H       0.90621   0.34590   0.91524   0.08349
H          H       0.00749   0.28752   0.80823   0.11219
H          H       0.79038   0.39937   0.61074   0.12373
H          H       0.69786   0.45351   0.72670   0.08388
H          H       0.78957   0.03985   0.07987   0.10816
H          H       0.13556   0.38603   0.77127   0.10380
H          H       0.06477   0.52033   0.88152   0.07038
H          H       0.00590   0.60965   0.77002   0.11993
H          H       0.34558   0.85298   0.94605   0.12059
H          H       0.39215   0.75016   0.04812   0.08675
H          H       0.83469   0.62103   0.56290   0.10606
H          H       0.72259   0.68253   0.57032   0.11417
H          H       0.70902   0.58781   0.45067   0.09540
H          H       0.20168   0.60244   0.69125   0.09106
H          H       0.09019   0.49315   0.57573   0.10887
H          H       0.17266   0.61202   0.57608   0.10355
H          H       0.49055   0.43199   0.08511   0.08236
H          H       0.69863   0.47908   0.19173   0.11254
H          H       0.68110   0.78923   0.39051   0.12336
H          H       0.47283   0.72886   0.27475   0.08364
H          H       0.31631   0.36068   0.88038   0.07082
H          H       0.26385   0.15946   0.76904   0.11972
H          H       0.10049   0.09265   0.94529   0.12118
H          H       0.15589   0.29787   0.04743   0.08685
H          H       0.22812   0.94150   0.56285   0.10462
H          H       0.34803   0.88811   0.57014   0.11380
H          H       0.24165   0.86256   0.45046   0.09629
H          H       0.99196   0.08882   0.69174   0.09153
H          H       0.98780   0.08240   0.57623   0.11046
H          H       0.90487   0.96419   0.57639   0.10412
H          H       0.09379   0.65410   0.08476   0.08332
H          H       0.99250   0.71248   0.19177   0.11221
H          H       0.20962   0.60063   0.38926   0.12371
H          H       0.30214   0.54649   0.27331   0.08378
H          H       0.21043   0.96015   0.92013   0.10830
H          H       0.86444   0.61397   0.22873   0.10372
C          C       0.87481   0.40639   0.10704   0.06056
C          C       0.90781   0.35557   0.16910  -0.18510
C          C       0.82962   0.25867   0.15150   0.11099
C          C       0.71954   0.22035   0.07061  -0.19868
C          C       0.69288   0.27753   0.01346   0.05528
C          C       0.85882   0.19740   0.21124  -0.05600
C          C       0.91450   0.24977   0.31734   0.15730
C          C       0.11037   0.27228   0.53363   0.15221
C          C       0.23022   0.34639   0.47415  -0.18443
C          C       0.86573   0.41672   0.38227  -0.18093
C          C       0.46394   0.48923   0.84692   0.06246
C          C       0.34756   0.46235   0.78703  -0.20192
C          C       0.28971   0.35903   0.69950   0.10405
C          C       0.35784   0.29051   0.67642  -0.18677
C          C       0.47382   0.32389   0.74092   0.04926
C          C       0.16492   0.32493   0.63988  -0.05804
C          C       0.73238   0.70116   0.10797   0.05854
C          C       0.76130   0.81419   0.16991  -0.18551
C          C       0.82155   0.89345   0.15205   0.11293
C          C       0.85093   0.85065   0.07123  -0.20115
C          C       0.82056   0.73620   0.01413   0.05533
C          C       0.85171   0.01458   0.21147  -0.05669
C          C       0.90189   0.06868   0.31754   0.15821
C          C       0.92253   0.26223   0.53372   0.15086
C          C       0.74371   0.12790   0.47430  -0.18747
C          C       0.01466   0.96583   0.38196  -0.18255
C          C       0.88343   0.35707   0.84744   0.06048
C          C       0.93982   0.32461   0.78728  -0.20251
C          C       0.90976   0.34075   0.69997   0.10783
C          C       0.81842   0.38607   0.67735  -0.19065
C          C       0.76704   0.41658   0.74202   0.05011
C          C       0.97460   0.31560   0.64001  -0.05935
C          C       0.83034   0.08091   0.16139  -0.16299
C          C       0.93450   0.18553   0.36988  -0.09306
C          C       0.99018   0.24113   0.48113  -0.09823
C          C       0.09474   0.34526   0.68982  -0.15180
C          C       0.12519   0.59361   0.89296   0.06055
C          C       0.09219   0.64443   0.83090  -0.18502
C          C       0.17037   0.74134   0.84850   0.11089
C          C       0.28046   0.77966   0.92939  -0.19870
C          C       0.30712   0.72247   0.98654   0.05532
C          C       0.14118   0.80260   0.78876  -0.05604
C          C       0.08550   0.75023   0.68266   0.15722
C          C       0.88963   0.72772   0.46637   0.15208
C          C       0.76978   0.65362   0.52585  -0.18612
C          C       0.13427   0.58329   0.61774  -0.18108
C          C       0.53605   0.51077   0.15308   0.06228
C          C       0.65244   0.53765   0.21298  -0.20174
C          C       0.71029   0.64097   0.30050   0.10404
C          C       0.64216   0.70949   0.32358  -0.18669
C          C       0.52618   0.67611   0.25908   0.04923
C          C       0.83508   0.67507   0.36013  -0.05788
C          C       0.26761   0.29885   0.89204   0.05837
C          C       0.23870   0.18582   0.83010  -0.18563
C          C       0.17845   0.10655   0.84796   0.11278
C          C       0.14906   0.14936   0.92877  -0.20107
C          C       0.17944   0.26381   0.98588   0.05543
C          C       0.14828   0.98542   0.78854  -0.05675
C          C       0.09811   0.93132   0.68247   0.15818
C          C       0.07747   0.73778   0.46629   0.15070
C          C       0.25629   0.87210   0.52570  -0.18601
C          C       0.98534   0.03417   0.61804  -0.18265
C          C       0.11657   0.64293   0.15256   0.06076
C          C       0.06018   0.67540   0.21272  -0.20250
C          C       0.09024   0.65925   0.30004   0.10787
C          C       0.18158   0.61393   0.32266  -0.19048
C          C       0.23295   0.58342   0.25798   0.05027
C          C       0.02540   0.68440   0.35999  -0.05930
C          C       0.16966   0.91909   0.83862  -0.16283
C          C       0.06550   0.81448   0.63012  -0.09305
C          C       0.00982   0.75887   0.51887  -0.09796
C          C       0.90526   0.65474   0.31018  -0.15203
N          N       0.76869   0.37017   0.03007  -0.22493
N          N       0.52806   0.42145   0.82656  -0.23518
N          N       0.76143   0.66023   0.03088  -0.22444
N          N       0.79871   0.40424   0.82739  -0.23305
N          N       0.23130   0.62983   0.96993  -0.22487
N          N       0.47194   0.57855   0.17345  -0.23511
N          N       0.23857   0.33977   0.96913  -0.22421
N          N       0.20129   0.59576   0.17261  -0.23355
O          O       0.95342   0.36514   0.37115  -0.19918
O          O       0.17494   0.24969   0.47948  -0.20465
O          O       0.91659   0.00739   0.37155  -0.19942
O          O       0.80374   0.23028   0.47970  -0.20361
O          O       0.04658   0.63486   0.62885  -0.19915
O          O       0.82506   0.75031   0.52053  -0.20444
O          O       0.08340   0.99261   0.62845  -0.19948
O          O       0.19626   0.76972   0.52030  -0.20352

