data_crystal

_audit_creation_method 'AiiDA-DDEC plugin'

_cell_length_a        16.95099
_cell_length_b        16.83463
_cell_length_c        16.83499

_cell_angle_alpha     101.61007
_cell_angle_beta     113.50013
_cell_angle_gamma     113.49770

_symmetry_space_group_name_Hall 'P 1'
_symmetry_space_group_name_H-M  'P 1'

loop_
_symmetry_equiv_pos_as_xyz
 'x,y,z'

loop_
_atom_site_label
_atom_site_type_symbol
_atom_site_fract_x
_atom_site_fract_y
_atom_site_fract_z
_atom_site_charge
Cu         Cu      0.42982  -0.00009   0.43045   0.21941
Cu         Cu      0.57017   0.00009   0.56955   0.21935
Cu         Cu      0.57023   0.56963   0.00013   0.21918
Cu         Cu      0.42977   0.43038  -0.00013   0.21929
Cu         Cu      0.56848   0.07389   0.07389   0.87553
Cu         Cu      0.43173   0.50539   0.50541   0.87421
Cu         Cu      0.00047   0.50503   0.07422   0.87105
Cu         Cu      0.00049   0.07419   0.50503   0.87104
Cu         Cu     -0.00050   0.92581   0.49497   0.87113
Cu         Cu     -0.00048   0.49497   0.92577   0.87113
Cu         Cu      0.56826   0.49461   0.49459   0.87401
Cu         Cu      0.43151   0.92611   0.92611   0.87544
H          H       0.47540   0.02911   0.28025   0.10340
H          H       0.52582   0.80575   0.55359   0.10364
H          H       0.74952   0.55345   0.03027   0.10251
H          H       0.25132   0.28077   0.80515   0.10378
H          H       0.25043   0.96969   0.44652   0.10269
H          H       0.74866   0.19485   0.71924   0.10364
H          H       0.47418   0.44643   0.19427   0.10335
H          H       0.52459   0.71970   0.97088   0.10345
H          H       0.52460   0.97089   0.71974   0.10350
H          H       0.47418   0.19425   0.44640   0.10342
H          H       0.25047   0.44655   0.96973   0.10260
H          H       0.74867   0.71923   0.19485   0.10358
H          H       0.74956   0.03031   0.55347   0.10273
H          H       0.25133   0.80516   0.28076   0.10375
H          H       0.52582   0.55357   0.80572   0.10366
H          H       0.47540   0.28030   0.02912   0.10336
H          H       0.24320   0.77377   0.01636   0.14923
H          H       0.75702   0.77391   0.53055   0.14936
H          H       0.75702   0.53058   0.77386   0.14945
H          H       0.24318   0.01637   0.77374   0.14927
H          H       0.24298   0.22609   0.46945   0.14957
H          H       0.75679   0.22623   0.98364   0.14928
H          H       0.24297   0.46942   0.22614   0.14962
H          H       0.75682   0.98363   0.22626   0.14940
C          C       0.40634   0.95802   0.23889   0.08433
C          C       0.36415   0.90720   0.14123  -0.06809
C          C       0.41337   0.94716   0.09021   0.58523
C          C       0.59470   0.83334   0.55157   0.08242
C          C       0.63670   0.77790   0.54334  -0.06558
C          C       0.58746   0.67759   0.53442   0.58336
C          C       0.71985   0.55144   0.95894   0.08623
C          C       0.76644   0.54319   0.90805  -0.06815
C          C       0.85745   0.53438   0.94818   0.58664
C          C       0.28086   0.23906   0.83274   0.08425
C          C       0.23393   0.14130   0.77750  -0.06757
C          C       0.14261   0.09027   0.67751   0.58373
C          C       0.28013   0.04102   0.44854   0.08634
C          C       0.23354   0.09192   0.45680  -0.06794
C          C       0.14252   0.05183   0.46561   0.58648
C          C       0.71911   0.16724   0.76094   0.08418
C          C       0.76605   0.22248   0.85870  -0.06789
C          C       0.85737   0.32247   0.90971   0.58419
C          C       0.40529   0.44843   0.16667   0.08246
C          C       0.36329   0.45667   0.22211  -0.06575
C          C       0.41255   0.46558   0.32241   0.58345
C          C       0.59366   0.76111   0.04198   0.08431
C          C       0.63585   0.85877   0.09280  -0.06798
C          C       0.58662   0.90979   0.05284   0.58454
C          C       0.59366   0.04198   0.76111   0.08428
C          C       0.63585   0.09280   0.85876  -0.06812
C          C       0.58662   0.05284   0.90978   0.58508
C          C       0.40529   0.16666   0.44842   0.08250
C          C       0.36330   0.22210   0.45666  -0.06547
C          C       0.41253   0.32241   0.46558   0.58341
C          C       0.28015   0.44856   0.04106   0.08644
C          C       0.23355   0.45681   0.09195  -0.06808
C          C       0.14254   0.46562   0.05182   0.58645
C          C       0.71913   0.76094   0.16726   0.08418
C          C       0.76606   0.85870   0.22250  -0.06776
C          C       0.85739   0.90973   0.32249   0.58386
C          C       0.71987   0.95898   0.55145   0.08634
C          C       0.76646   0.90808   0.54320  -0.06806
C          C       0.85747   0.94817   0.53438   0.58688
C          C       0.28088   0.83276   0.23906   0.08415
C          C       0.23395   0.77752   0.14130  -0.06798
C          C       0.14262   0.67753   0.09029   0.58420
C          C       0.59471   0.55157   0.83332   0.08233
C          C       0.63670   0.54334   0.77788  -0.06558
C          C       0.58744   0.53442   0.67759   0.58356
C          C       0.40633   0.23889   0.95802   0.08410
C          C       0.36414   0.14123   0.90719  -0.06801
C          C       0.41337   0.09021   0.94716   0.58459
C          C       0.27665   0.81549   0.09189  -0.04913
C          C       0.72378   0.81598   0.53882  -0.05077
C          C       0.72379   0.53882   0.81594  -0.05034
C          C       0.27664   0.09190   0.81548  -0.04923
C          C       0.27621   0.18402   0.46118  -0.05064
C          C       0.72335   0.18451   0.90811  -0.04923
C          C       0.27620   0.46118   0.18405  -0.05030
C          C       0.72335   0.90810   0.18452  -0.04916
I          I       0.37655   0.87459   0.50074  -0.34639
I          I       0.62345   0.12541   0.49926  -0.34655
I          I       0.37657   0.50071   0.87460  -0.34638
I          I       0.62343   0.49929   0.12540  -0.34657
N          N       0.36557   0.92156   0.28717  -0.18096
N          N       0.63539   0.92237   0.55556  -0.18114
N          N       0.63539   0.55557   0.92235  -0.18115
N          N       0.36555   0.28716   0.92154  -0.18084
N          N       0.36460   0.07763   0.44444  -0.18160
N          N       0.63442   0.07844   0.71283  -0.18092
N          N       0.36461   0.44444   0.07765  -0.18153
N          N       0.63444   0.71285   0.07846  -0.18095
O          O       0.49559   0.02963   0.13930  -0.52912
O          O       0.36874   0.89314   0.00154  -0.53934
O          O       0.50529   0.64431   0.53433  -0.52914
O          O       0.63197   0.63358   0.52545  -0.53916
O          O       0.89126   0.53449   0.03090  -0.53072
O          O       0.89164   0.52541   0.89384  -0.54025
O          O       0.10983   0.13973   0.64395  -0.52831
O          O       0.10711   0.00122   0.63406  -0.53948
O          O       0.10868   0.96912   0.46550  -0.53051
O          O       0.10835   0.10619   0.47459  -0.54003
O          O       0.89013   0.35604   0.86024  -0.52860
O          O       0.89287   0.36591  -0.00124  -0.53982
O          O       0.49472   0.46567   0.35566  -0.52943
O          O       0.36806   0.47455   0.36643  -0.53885
O          O       0.50441   0.86071   0.97036  -0.52892
O          O       0.63125  -0.00152   0.10685  -0.53901
O          O       0.50441   0.97037   0.86069  -0.52894
O          O       0.63126   0.10686  -0.00154  -0.53943
O          O       0.49470   0.35569   0.46567  -0.52958
O          O       0.36803   0.36643   0.47455  -0.53882
O          O       0.10873   0.46551   0.96910  -0.53062
O          O       0.10835   0.47459   0.10616  -0.54011
O          O       0.89016   0.86027   0.35605  -0.52878
O          O       0.89288  -0.00122   0.36594  -0.53911
O          O       0.89131   0.03088   0.53449  -0.53041
O          O       0.89164   0.89381   0.52541  -0.54052
O          O       0.10986   0.64396   0.13975  -0.52858
O          O       0.10713   0.63409   0.00123  -0.53972
O          O       0.50527   0.53433   0.64434  -0.52915
O          O       0.63193   0.52546   0.63356  -0.53932
O          O       0.49558   0.13929   0.02963  -0.52900
O          O       0.36874   0.00152   0.89314  -0.53895

