data_crystal

_audit_creation_method 'AiiDA-DDEC plugin'

_cell_length_a        12.19672
_cell_length_b        12.46963
_cell_length_c        12.46953

_cell_angle_alpha     94.63183
_cell_angle_beta     112.26398
_cell_angle_gamma     112.26428

_symmetry_space_group_name_Hall 'P 1'
_symmetry_space_group_name_H-M  'P 1'

loop_
_symmetry_equiv_pos_as_xyz
 'x,y,z'

loop_
_atom_site_label
_atom_site_type_symbol
_atom_site_fract_x
_atom_site_fract_y
_atom_site_fract_z
_atom_site_charge
Mg         Mg      0.74999   0.69571   0.30421   1.54386
Mg         Mg      0.25001   0.30429   0.69579   1.54384
Mg         Mg      0.50000   0.50000   0.00000   1.50821
Mg         Mg      0.00000   0.00000   0.50000   1.50797
H          H       0.59794   0.93116   0.89345   0.13230
H          H       0.64607   0.76374   0.96142   0.13755
H          H       0.44341   0.93523   0.15442   0.13384
H          H       0.02118   0.58621   0.33524   0.11542
H          H       0.75005   0.15131   0.27314   0.10032
H          H       0.65299   0.27044   0.14819   0.08497
H          H       0.12121   0.46641   0.45642   0.12222
H          H       0.50605   0.77218   0.21471   0.15842
H          H       0.90208   0.10655   0.06889   0.13231
H          H       0.85388   0.03852   0.23625   0.13746
H          H       0.05661   0.84559   0.06479   0.13381
H          H       0.47875   0.66471   0.41382   0.11540
H          H       0.74992   0.72681   0.84871   0.10056
H          H       0.84697   0.85179   0.72960   0.08490
H          H       0.37875   0.54355   0.53363   0.12213
H          H       0.99389   0.78523   0.22777   0.15840
H          H       0.40206   0.06884   0.10655   0.13220
H          H       0.35393   0.23626   0.03858   0.13753
H          H       0.55659   0.06477   0.84558   0.13394
H          H       0.97882   0.41379   0.66476   0.11534
H          H       0.24996   0.84869   0.72686   0.10045
H          H       0.34702   0.72956   0.85181   0.08500
H          H       0.87880   0.53359   0.54358   0.12215
H          H       0.49396   0.22782   0.78529   0.15854
H          H       0.09793   0.89346   0.93111   0.13229
H          H       0.14613   0.96148   0.76375   0.13755
H          H       0.94340   0.15441   0.93521   0.13378
H          H       0.52126   0.33529   0.58618   0.11539
H          H       0.25009   0.27320   0.15129   0.10048
H          H       0.15303   0.14821   0.27040   0.08474
H          H       0.62126   0.45646   0.46637   0.12234
H          H       0.00612   0.21477   0.77223   0.15841
C          C       0.57556   0.90143   0.96549  -0.15368
C          C       0.60528   0.80998   0.00125  -0.02378
C          C       0.00165   0.23446   0.45004   0.61725
C          C       0.51672   0.95157   0.01884   0.08065
C          C       0.94233   0.30168   0.37043  -0.03717
C          C       0.76632   0.50653   0.16827   0.62108
C          C       0.83154   0.43428   0.23254  -0.03023
C          C       0.48986   0.90290   0.10916  -0.14978
C          C       0.75580   0.31131   0.21418  -0.11094
C          C       0.52103   0.81175   0.14388   0.00688
C          C       0.81002   0.24547   0.28301  -0.12151
C          C       0.01931   0.42430   0.38711  -0.09294
C          C       0.96405   0.49025   0.31956  -0.09488
C          C       0.92442   0.03448   0.09858  -0.15376
C          C       0.89465  -0.00132   0.18999  -0.02343
C          C       0.49824   0.54997   0.76552   0.61763
C          C       0.98327   0.98115   0.04843   0.08063
C          C       0.55761   0.62957   0.69834  -0.03717
C          C       0.73351   0.83156   0.49335   0.62073
C          C       0.66839   0.76745   0.56574  -0.03009
C          C       0.01012   0.89083   0.09709  -0.14967
C          C       0.74415   0.78582   0.68872  -0.11074
C          C       0.97890   0.85606   0.18821   0.00670
C          C       0.68994   0.71696   0.75456  -0.12180
C          C       0.48063   0.61287   0.57573  -0.09296
C          C       0.53589   0.68043   0.50979  -0.09499
C          C       0.42444   0.09858   0.03451  -0.15373
C          C       0.39473   0.19002  -0.00125  -0.02388
C          C      -0.00164   0.76554   0.54996   0.61719
C          C       0.48328   0.04843   0.98116   0.08054
C          C       0.05767   0.69833   0.62957  -0.03715
C          C       0.23369   0.49348   0.83173   0.62109
C          C       0.16847   0.56572   0.76746  -0.03034
C          C       0.51014   0.09711   0.89084  -0.14975
C          C       0.24420   0.68869   0.78582  -0.11077
C          C       0.47897   0.18825   0.85612   0.00692
C          C       0.18999   0.75454   0.71699  -0.12154
C          C       0.98069   0.57571   0.61289  -0.09298
C          C       0.03596   0.50976   0.68044  -0.09497
C          C       0.07559   0.96552   0.90142  -0.15388
C          C       0.10536   0.00132   0.81001  -0.02335
C          C       0.50176   0.45004   0.23448   0.61733
C          C       0.01674   0.01885   0.95157   0.08057
C          C       0.44240   0.37043   0.30166  -0.03714
C          C       0.26649   0.16845   0.50665   0.62073
C          C       0.33161   0.23256   0.43426  -0.03018
C          C       0.98988   0.10918   0.90291  -0.14963
C          C       0.25585   0.21418   0.31128  -0.11070
C          C       0.02110   0.14394   0.81179   0.00666
C          C       0.31006   0.28304   0.24544  -0.12174
C          C       0.51937   0.38714   0.42427  -0.09290
C          C       0.46412   0.31957   0.49021  -0.09498
N          N       0.57911   0.76725   0.09029   0.36051
N          N       0.92079   0.90963   0.23270   0.36073
N          N       0.42089   0.23275   0.90971   0.36058
N          N       0.07921   0.09037   0.76730   0.36064
O          O       0.60999   0.68055   0.12394  -0.63909
O          O       0.82609   0.62045   0.21372  -0.71558
O          O       0.11710   0.29611   0.53403  -0.67713
O          O       0.93268   0.12120   0.42795  -0.68255
O          O       0.65441   0.45083   0.07708  -0.66814
O          O       0.88993   0.87597   0.31941  -0.63936
O          O       0.67363   0.78587   0.37945  -0.71475
O          O       0.38265   0.46617   0.70389  -0.67737
O          O       0.56730   0.57188   0.87873  -0.68274
O          O       0.84539   0.92279   0.54890  -0.66847
O          O       0.39002   0.31945   0.87606  -0.63910
O          O       0.17391   0.37956   0.78628  -0.71569
O          O       0.88291   0.70389   0.46597  -0.67724
O          O       0.06732   0.87881   0.57205  -0.68238
O          O       0.34560   0.54917   0.92292  -0.66807
O          O       0.11007   0.12403   0.68059  -0.63921
O          O       0.32637   0.21413   0.62055  -0.71467
O          O       0.61736   0.53383   0.29611  -0.67707
O          O       0.43270   0.42813   0.12127  -0.68271
O          O       0.15461   0.07721   0.45110  -0.66861

