data_crystal

_audit_creation_method 'AiiDA-DDEC plugin'

_cell_length_a        14.65515
_cell_length_b        14.65514
_cell_length_c        17.88531

_cell_angle_alpha     90.00000
_cell_angle_beta     90.00000
_cell_angle_gamma     119.94947

_symmetry_space_group_name_Hall 'P 1'
_symmetry_space_group_name_H-M  'P 1'

loop_
_symmetry_equiv_pos_as_xyz
 'x,y,z'

loop_
_atom_site_label
_atom_site_type_symbol
_atom_site_fract_x
_atom_site_fract_y
_atom_site_fract_z
_atom_site_charge
Sc         Sc      0.25624   0.74377   0.25005   1.79174
Sc         Sc      0.48745   0.74368   0.25005   1.79155
Sc         Sc      0.25633   0.51256   0.25005   1.79157
Sc         Sc      0.74377   0.25624   0.74995   1.79166
Sc         Sc      0.51255   0.25632   0.74995   1.79155
Sc         Sc      0.74368   0.48745   0.74995   1.79156
H          H       0.60714   0.90427   0.10717   0.34377
H          H       0.29720   0.39293   0.10716   0.34320
H          H       0.09569   0.70282   0.10713   0.34335
H          H       0.39289   0.09576   0.60716   0.34702
H          H       0.70282   0.60705   0.60715   0.34345
H          H       0.90427   0.29717   0.60711   0.34356
H          H       0.70282   0.09569   0.89287   0.34335
H          H       0.90427   0.60714   0.89283   0.34374
H          H       0.39292   0.29719   0.89284   0.34330
H          H       0.29717   0.90427   0.39289   0.34349
H          H       0.09576   0.39289   0.39284   0.34703
H          H       0.60706   0.70282   0.39286   0.34362
H          H       0.39286   0.09573   0.89283   0.34702
H          H       0.70281   0.60708   0.89283   0.34316
H          H       0.90431   0.29718   0.89287   0.34349
H          H       0.60712   0.90424   0.39285   0.34711
H          H       0.29719   0.39295   0.39286   0.34342
H          H       0.09573   0.70283   0.39289   0.34346
H          H       0.29718   0.90431   0.10713   0.34388
H          H       0.09573   0.39286   0.10718   0.34711
H          H       0.60708   0.70281   0.10716   0.34331
H          H       0.70283   0.09573   0.60712   0.34353
H          H       0.90424   0.60712   0.60715   0.34710
H          H       0.39295   0.29718   0.60714   0.34354
C          C       0.56962   0.97057   0.03312   0.18946
C          C       0.40102   0.43045   0.03312   0.18927
C          C       0.02941   0.59904   0.03310   0.18891
C          C       0.43040   0.02945   0.53311   0.18904
C          C       0.59899   0.56955   0.53311   0.18913
C          C       0.97058   0.40096   0.53309   0.18865
C          C       0.59904   0.02941   0.96690   0.18902
C          C       0.97057   0.56962   0.96688   0.18938
C          C       0.43045   0.40102   0.96688   0.18918
C          C       0.40096   0.97058   0.46691   0.18865
C          C       0.02945   0.43040   0.46689   0.18897
C          C       0.56955   0.59899   0.46690   0.18914
C          C       0.43039   0.02943   0.96688   0.18919
C          C       0.59899   0.56956   0.96688   0.18938
C          C       0.97059   0.40096   0.96690   0.18902
C          C       0.56961   0.97055   0.46689   0.18905
C          C       0.40101   0.43046   0.46690   0.18920
C          C       0.02942   0.59905   0.46691   0.18874
C          C       0.40096   0.97059   0.03310   0.18904
C          C       0.02943   0.43039   0.03313   0.18916
C          C       0.56956   0.59899   0.03312   0.18931
C          C       0.59905   0.02943   0.53309   0.18872
C          C       0.97055   0.56961   0.53311   0.18891
C          C       0.43046   0.40101   0.53310   0.18911
C          C       0.43976   0.87950   0.13591   0.64253
C          C       0.47039   0.94076   0.06760  -0.29486
C          C       0.43976   0.56026   0.13592   0.64242
C          C       0.47038   0.52963   0.06760  -0.29540
C          C       0.12051   0.56026   0.13592   0.64212
C          C       0.05925   0.52962   0.06760  -0.29476
C          C       0.56027   0.12054   0.63586   0.64218
C          C       0.52964   0.05930   0.56757  -0.29448
C          C       0.56027   0.43974   0.63587   0.64181
C          C       0.52966   0.47035   0.56757  -0.29452
C          C       0.87947   0.43974   0.63586   0.64201
C          C       0.94070   0.47036   0.56756  -0.29427
C          C       0.56025   0.12051   0.86409   0.64217
C          C       0.52961   0.05924   0.93240  -0.29484
C          C       0.87950   0.43975   0.86409   0.64237
C          C       0.94076   0.47039   0.93240  -0.29491
C          C       0.56025   0.43975   0.86408   0.64248
C          C       0.52963   0.47037   0.93240  -0.29542
C          C       0.43974   0.87947   0.36414   0.64189
C          C       0.47036   0.94070   0.43244  -0.29419
C          C       0.12054   0.56027   0.36414   0.64218
C          C       0.05930   0.52964   0.43243  -0.29441
C          C       0.43974   0.56027   0.36413   0.64155
C          C       0.47035   0.52966   0.43243  -0.29429
O          O       0.34854   0.85072   0.16681  -0.66466
O          O       0.63956   0.94451   0.06107  -0.39307
O          O       0.50216   0.65143   0.16683  -0.66449
O          O       0.30509   0.36056   0.06104  -0.39192
O          O       0.14929   0.49779   0.16683  -0.66595
O          O       0.05544   0.69501   0.06102  -0.39189
O          O       0.65147   0.14930   0.66678  -0.66506
O          O       0.36045   0.05550   0.56107  -0.39461
O          O       0.49786   0.34857   0.66679  -0.66487
O          O       0.69492   0.63944   0.56104  -0.39221
O          O       0.85071   0.50221   0.66680  -0.66637
O          O       0.94455   0.30500   0.56102  -0.39204
O          O       0.49779   0.14929   0.83317  -0.66592
O          O       0.69501   0.05544   0.93898  -0.39200
O          O       0.85072   0.34854   0.83319  -0.66445
O          O       0.94450   0.63956   0.93893  -0.39284
O          O       0.65142   0.50215   0.83318  -0.66451
O          O       0.36056   0.30509   0.93896  -0.39201
O          O       0.50222   0.85071   0.33320  -0.66643
O          O       0.30500   0.94455   0.43898  -0.39193
O          O       0.14930   0.65148   0.33322  -0.66505
O          O       0.05550   0.36045   0.43893  -0.39463
O          O       0.34858   0.49787   0.33321  -0.66481
O          O       0.63944   0.69492   0.43897  -0.39234
O          O       0.65147   0.14928   0.83319  -0.66429
O          O       0.36044   0.05550   0.93893  -0.39472
O          O       0.49785   0.34858   0.83318  -0.66443
O          O       0.69492   0.63944   0.93896  -0.39200
O          O       0.85071   0.50221   0.83317  -0.66459
O          O       0.94456   0.30500   0.93898  -0.39211
O          O       0.34854   0.85071   0.33322  -0.66487
O          O       0.63955   0.94450   0.43894  -0.39481
O          O       0.50215   0.65143   0.33321  -0.66487
O          O       0.30509   0.36057   0.43897  -0.39221
O          O       0.14930   0.49780   0.33320  -0.66644
O          O       0.05545   0.69501   0.43898  -0.39191
O          O       0.50222   0.85072   0.16683  -0.66470
O          O       0.30500   0.94456   0.06102  -0.39248
O          O       0.14929   0.65147   0.16681  -0.66421
O          O       0.05550   0.36044   0.06107  -0.39486
O          O       0.34859   0.49787   0.16683  -0.66441
O          O       0.63945   0.69492   0.06104  -0.39211
O          O       0.49779   0.14930   0.66680  -0.66638
O          O       0.69501   0.05545   0.56102  -0.39200
O          O       0.85071   0.34853   0.66678  -0.66499
O          O       0.94450   0.63955   0.56107  -0.39459
O          O       0.65143   0.50214   0.66679  -0.66490
O          O       0.36057   0.30509   0.56103  -0.39225
O          O       0.33333   0.66667   0.24990  -1.16623
O          O       0.66667   0.33333   0.75010  -1.16624

