data_crystal

_audit_creation_method 'AiiDA-DDEC plugin'

_cell_length_a        10.57711
_cell_length_b        13.28131
_cell_length_c        23.59804

_cell_angle_alpha     94.14838
_cell_angle_beta     102.50102
_cell_angle_gamma     113.49826

_symmetry_space_group_name_Hall 'P 1'
_symmetry_space_group_name_H-M  'P 1'

loop_
_symmetry_equiv_pos_as_xyz
 'x,y,z'

loop_
_atom_site_label
_atom_site_type_symbol
_atom_site_fract_x
_atom_site_fract_y
_atom_site_fract_z
_atom_site_charge
Ag         Ag      0.38426   0.94904   0.34640   0.23104
Ag         Ag      0.53330   0.38600   0.10270  -0.09173
Ag         Ag      0.73523   0.03389   0.84115   0.26740
Ag         Ag      0.80820   0.98232   0.38595   0.27669
Ag         Ag      0.06003   0.48296   0.88671   0.27791
Ag         Ag      0.65048   0.71880   0.81574   0.26028
Ag         Ag      0.38465   0.21849   0.31367   0.25654
Ag         Ag      0.63924   0.53392   0.33977   0.26874
Ag         Ag      0.03711   0.72784   0.81448   0.27298
Ag         Ag      0.00662   0.22774   0.31404   0.27214
Ag         Ag      0.41050   0.44763   0.84596   0.23421
Ag         Ag      0.19943   0.82866   0.53157  -0.10863
Ag         Ag      0.66547   0.34017   0.02853  -0.08398
Ag         Ag      0.45115   0.87620   0.60294  -0.11179
H          H       0.14148   0.43288   0.74669   0.08832
H          H       0.38306   0.10385   0.76661   0.11816
H          H       0.88816   0.87467   0.47378   0.06936
H          H       0.79623   0.10969   0.73425   0.10493
H          H       0.96494   0.43635   0.31225   0.09330
H          H       0.96245   0.38258   0.97494   0.06910
H          H       0.81299   0.77304   0.35221   0.06661
H          H       0.88005   0.30833   0.71658   0.12635
H          H       0.64704   0.80926   0.21550   0.12631
H          H       0.91425   0.52182   0.41467   0.09377
H          H       0.51303   0.29385   0.22150   0.08151
H          H       0.54136   0.11030   0.70093   0.09315
H          H       0.77445   0.61193   0.20185   0.09204
H          H       0.54157   0.93421   0.24718   0.08822
H          H       0.26750   0.68794   0.31820   0.09161
H          H       0.18864   0.95571   0.63439   0.07508
H          H       0.28221   0.93448   0.81134   0.09474
H          H       0.81233   0.27308   0.85419   0.06744
H          H       0.82631   0.03554   0.62437   0.12056
H          H       0.51487   0.01970   0.91372   0.09230
H          H       0.23885   0.18643   0.81694   0.09349
H          H       0.98934   0.60668   0.26833   0.11724
H          H       0.17749   0.64750   0.44209   0.12036
H          H       0.54942   0.61045   0.23284   0.10420
H          H       0.16165   0.53022   0.18713   0.10757
H          H       0.40739   0.14560   0.94295   0.12072
H          H       0.33060   0.53084   0.12611   0.12015
H          H       0.05285   0.03360   0.68485   0.10661
H          H       0.90055   0.46021   0.13651   0.07652
H          H       0.26037   0.84462   0.42619   0.10177
H          H       0.50617   0.34351   0.92756   0.09798
H          H       0.51015   0.79492   0.72273   0.08170
C          C       0.97766   0.46136   0.11212   0.07997
C          C       0.55487   0.10567   0.90707  -0.00351
C          C       0.48389   0.86365   0.73493   0.03459
C          C       0.39879   0.63405   0.27655  -0.03970
C          C       0.72211   0.43272   0.87006   0.24828
C          C       0.88544   0.53565   0.25922  -0.11471
C          C       0.14657   0.78898   0.41387  -0.08393
C          C       0.72511   0.24919   0.87530   0.02811
C          C       0.39974   0.85427   0.77477  -0.05838
C          C       0.01322   0.13333   0.77684  -0.03356
C          C       0.49712   0.17668   0.92348  -0.10018
C          C       0.09969   0.67778   0.42200  -0.09736
C          C       0.97224   0.02077   0.78890   0.22904
C          C       0.01159   0.41921   0.02155   0.03744
C          C       0.33927   0.52124   0.28835   0.22947
C          C       0.04106   0.82514   0.38586  -0.05884
C          C       0.56269   0.77863   0.23783  -0.12787
C          C       0.95416   0.60681   0.40652   0.00195
C          C       0.49964   0.03878   0.72240   0.01460
C          C       0.76579   0.53977   0.22263   0.00505
C          C       0.35505   0.94018   0.78429  -0.12206
C          C       0.61928   0.36331   0.23395   0.02972
C          C       0.95574   0.27775   0.73854  -0.12442
C          C       0.67040   0.32546   0.88861  -0.06029
C          C       0.55662   0.28964   0.91758  -0.09154
C          C       0.15719   0.21029   0.79356   0.04380
C          C       0.73204   0.35511   0.27462  -0.05758
C          C       0.35497   0.75453   0.80118   0.24687
C          C       0.21621   0.50072   0.10607  -0.06807
C          C       0.51066   0.66922   0.24817  -0.12091
C          C       0.92315   0.91353   0.52014   0.03688
C          C       0.07891   0.93290   0.36809   0.24627
C          C       0.40931   0.03376   0.75828  -0.11593
C          C       0.70255   0.25525   0.30084   0.24733
C          C       0.10152   0.34802   0.75524   0.03984
C          C       0.16022   0.46053   0.04505  -0.01606
C          C       0.89683   0.74925   0.37325   0.02929
C          C       0.87180   0.44195   0.28506  -0.12882
C          C       0.90866   0.16846   0.74906  -0.12341
C          C       0.50445   0.84908   0.25534   0.03834
C          C       0.12317   0.50055   0.13981  -0.12872
C          C       0.84211   0.95906   0.54357  -0.01491
C          C       0.88853   0.00230   0.60434  -0.06807
C          C       0.01367   0.00133   0.63776  -0.13128
C          C       0.08946   0.95767   0.61018   0.08260
C          C       0.34915   0.71130   0.29413   0.04789
C          C       0.71114   0.95801   0.50698   0.22172
C          C       0.25236   0.45778   0.00767   0.22449
N          N       0.64208   0.49057   0.85632  -0.19641
N          N       0.52997   0.95101   0.70707  -0.20896
N          N       0.85287   0.64442   0.38417  -0.19820
N          N       0.99601   0.99013   0.35875  -0.21770
N          N       0.22196   0.45419   0.94852  -0.22424
N          N       0.19554   0.08298   0.33672  -0.02935
N          N       0.71591   0.11194   0.33621  -0.05941
N          N       0.43124   0.69330   0.81210  -0.21668
N          N       0.20346   0.99093   0.35436  -0.19673
N          N       0.67808   0.95376   0.44780  -0.22619
N          N       0.50244   0.95636   0.48158  -0.06562
N          N       0.85306   0.49021   0.86048  -0.21851
N          N       0.23306   0.61120   0.83679  -0.06063
N          N       0.92246   0.42049   0.05391  -0.15615
N          N       0.07190   0.08296   0.33909  -0.04915
N          N       0.54610   0.95298   0.43355  -0.05500
N          N       0.20234   0.31559   0.78340  -0.21430
N          N       0.84532   0.86016   0.80765  -0.04811
N          N       0.72490   0.58277   0.83862  -0.03320
N          N       0.60357   0.95976   0.52842  -0.20964
N          N       0.04424   0.91335   0.55230  -0.15726
N          N       0.84642   0.96018   0.80094  -0.19574
N          N       0.33685   0.45100   0.93305  -0.05511
N          N       0.43083   0.45237   0.98029  -0.06175
N          N       0.32378   0.35985   0.30562  -0.04715
N          N       0.63347   0.45047   0.20591  -0.20646
N          N       0.85085   0.58297   0.84086  -0.05009
N          N       0.04818   0.96008   0.78811  -0.24492
N          N       0.19626   0.36129   0.29915  -0.00984
N          N       0.20252   0.46065   0.28859  -0.24487
N          N       0.79173   0.20561   0.31672  -0.21396
N          N       0.67343   0.14351   0.88514  -0.20328
N          N       0.35233   0.60511   0.83372  -0.02428
N          N       0.57516   0.19313   0.31120  -0.21491
N          N       0.96664   0.86115   0.79962  -0.00751
N          N       0.23121   0.70428   0.81685  -0.21011
N          N       0.58704   0.10497   0.33269  -0.02401
N          N       0.38117   0.45669   0.02785  -0.20972
N          N       0.41586   0.46006   0.29880  -0.19834
N          N       0.39956   0.81668   0.28410  -0.21287

