data_crystal

_audit_creation_method 'AiiDA-DDEC plugin'

_cell_length_a         9.50172
_cell_length_b        14.09701
_cell_length_c        14.09703

_cell_angle_alpha     70.31485
_cell_angle_beta     86.46303
_cell_angle_gamma     86.46257

_symmetry_space_group_name_Hall 'P 1'
_symmetry_space_group_name_H-M  'P 1'

loop_
_symmetry_equiv_pos_as_xyz
 'x,y,z'

loop_
_atom_site_label
_atom_site_type_symbol
_atom_site_fract_x
_atom_site_fract_y
_atom_site_fract_z
_atom_site_charge
Mn         Mn      0.00000   0.00000   0.00000   1.09635
Mn         Mn      0.50000   0.00000   0.00000   1.09624
Mn         Mn      0.25001   0.15294   0.84706   1.07073
Mn         Mn      0.74999   0.84706   0.15294   1.07073
H          H       0.67373   0.22124   0.88850   0.09569
H          H       0.81909   0.57114   0.73680   0.09291
H          H       0.00511   0.43222   0.79590   0.11525
H          H       0.58124   0.73208   0.96927   0.09647
H          H       0.82677   0.94076   0.73251   0.11904
H          H       0.75757   0.85355   0.61560   0.13054
H          H       0.82629   0.11150   0.77876   0.09584
H          H       0.68092   0.26320   0.42886   0.09288
H          H       0.49490   0.20410   0.56778   0.11507
H          H       0.91877   0.03073   0.26792   0.09658
H          H       0.67323   0.26749   0.05924   0.11900
H          H       0.74244   0.38440   0.14645   0.13043
H          H       0.32628   0.77876   0.11150   0.09573
H          H       0.18091   0.42886   0.26319   0.09292
H          H       0.99489   0.56778   0.20410   0.11518
H          H       0.41876   0.26791   0.03073   0.09653
H          H       0.17323   0.05924   0.26749   0.11899
H          H       0.24244   0.14645   0.38440   0.13046
H          H       0.17372   0.88850   0.22124   0.09585
H          H       0.31909   0.73680   0.57114   0.09291
H          H       0.50510   0.79590   0.43222   0.11515
H          H       0.08124   0.96927   0.73208   0.09651
H          H       0.32677   0.73251   0.94076   0.11905
H          H       0.25757   0.61560   0.85355   0.13050
C          C       0.95964   0.23129   0.87376   0.60649
C          C       0.85292   0.31628   0.84454  -0.11514
C          C       0.70822   0.29807   0.85448   0.09032
C          C       0.64997   0.46591   0.77837   0.19561
C          C       0.79077   0.49299   0.76950  -0.18945
C          C       0.89352   0.41634   0.80256  -0.02819
C          C       0.63451   0.74535   0.73455   0.18678
C          C       0.62201   0.76016   0.89137   0.10300
C          C       0.70874   0.84304   0.85988  -0.10603
C          C       0.75821   0.87735   0.75892  -0.02147
C          C       0.71927   0.82917   0.69403  -0.18524
C          C       0.75226   0.88836   0.93346   0.60530
C          C       0.54038   0.12624   0.76871   0.60619
C          C       0.64709   0.15546   0.68372  -0.11473
C          C       0.79179   0.14552   0.70193   0.09014
C          C       0.85004   0.22163   0.53409   0.19560
C          C       0.70924   0.23050   0.50701  -0.18954
C          C       0.60649   0.19744   0.58366  -0.02834
C          C       0.86549   0.26545   0.25465   0.18673
C          C       0.87800   0.10862   0.23984   0.10295
C          C       0.79127   0.14012   0.15696  -0.10613
C          C       0.74179   0.24108   0.12265  -0.02143
C          C       0.78073   0.30596   0.17083  -0.18517
C          C       0.74775   0.06654   0.11164   0.60557
C          C       0.04037   0.76871   0.12624   0.60647
C          C       0.14708   0.68372   0.15546  -0.11503
C          C       0.29178   0.70193   0.14551   0.09026
C          C       0.35004   0.53409   0.22163   0.19567
C          C       0.20923   0.50701   0.23050  -0.18953
C          C       0.10648   0.58366   0.19744  -0.02827
C          C       0.36549   0.25465   0.26545   0.18678
C          C       0.37800   0.23984   0.10863   0.10302
C          C       0.29127   0.15696   0.14012  -0.10604
C          C       0.24179   0.12265   0.24108  -0.02144
C          C       0.28073   0.17083   0.30596  -0.18520
C          C       0.24774   0.11164   0.06654   0.60534
C          C       0.45963   0.87376   0.23129   0.60622
C          C       0.35291   0.84454   0.31628  -0.11481
C          C       0.20821   0.85448   0.29807   0.09014
C          C       0.14996   0.77837   0.46591   0.19558
C          C       0.29077   0.76950   0.49299  -0.18954
C          C       0.39351   0.80256   0.41634  -0.02832
C          C       0.13451   0.73455   0.74535   0.18678
C          C       0.12201   0.89137   0.76016   0.10290
C          C       0.20873   0.85988   0.84304  -0.10608
C          C       0.25821   0.75892   0.87735  -0.02147
C          C       0.21927   0.69404   0.82917  -0.18523
C          C       0.25226   0.93346   0.88836   0.60564
S          S       0.50387   0.55222   0.73449   0.02056
S          S       0.59282   0.68280   0.64854   0.01307
S          S       0.99614   0.26551   0.44778   0.02079
S          S       0.90718   0.35146   0.31720   0.01301
S          S       0.49613   0.44778   0.26551   0.02071
S          S       0.40718   0.31720   0.35146   0.01303
S          S       0.00387   0.73449   0.55222   0.02068
S          S       0.09282   0.64854   0.68280   0.01304
N          N       0.60748   0.37113   0.82144  -0.29996
N          N       0.58701   0.71065   0.83060  -0.30447
N          N       0.89253   0.17856   0.62887  -0.29970
N          N       0.91300   0.16940   0.28935  -0.30436
N          N       0.39252   0.62887   0.17856  -0.29989
N          N       0.41299   0.28935   0.16940  -0.30445
N          N       0.10748   0.82144   0.37113  -0.29980
N          N       0.08701   0.83060   0.71065  -0.30437
O          O       0.91685   0.14369   0.92222  -0.56413
O          O       0.08911   0.25225   0.84519  -0.57205
O          O       0.66656   0.87637   0.01320  -0.62873
O          O       0.86612   0.93328   0.91847  -0.53963
O          O       0.58316   0.07778   0.85631  -0.56388
O          O       0.41090   0.15481   0.74775  -0.57225
O          O       0.83344   0.98680   0.12363  -0.62886
O          O       0.63389   0.08153   0.06672  -0.53990
O          O       0.08315   0.85631   0.07778  -0.56409
O          O       0.91090   0.74775   0.15480  -0.57216
O          O       0.33344   0.12363   0.98680  -0.62867
O          O       0.13389   0.06672   0.08153  -0.53979
O          O       0.41684   0.92222   0.14369  -0.56393
O          O       0.58910   0.84519   0.25225  -0.57219
O          O       0.16657   0.01320   0.87637  -0.62899
O          O       0.36612   0.91847   0.93328  -0.53983

