data_crystal

_audit_creation_method 'AiiDA-DDEC plugin'

_cell_length_a        12.33459
_cell_length_b        12.17110
_cell_length_c        13.91502

_cell_angle_alpha     90.01601
_cell_angle_beta     89.97117
_cell_angle_gamma     90.00135

_symmetry_space_group_name_Hall 'P 1'
_symmetry_space_group_name_H-M  'P 1'

loop_
_symmetry_equiv_pos_as_xyz
 'x,y,z'

loop_
_atom_site_label
_atom_site_type_symbol
_atom_site_fract_x
_atom_site_fract_y
_atom_site_fract_z
_atom_site_charge
Zn         Zn      0.80634   0.24901  -0.00099   0.73257
Zn         Zn      0.30557   0.75066   0.49876   0.73289
Zn         Zn      0.69443   0.24934   0.50124   0.73292
Zn         Zn      0.19365   0.75099   0.00099   0.73259
H          H       0.42402   0.61179   0.16994   0.15019
H          H       0.32048   0.72086   0.28977   0.09869
H          H       0.52031   0.62375   0.51300   0.09032
H          H       0.63468   0.50982   0.40263   0.12766
H          H       0.66429   0.42883   0.24891   0.11005
H          H       0.53432   0.52274   0.07812   0.13347
H          H       0.42338   0.88790   0.82943   0.14917
H          H       0.32018   0.77888   0.70952   0.09914
H          H       0.52052   0.87608   0.48661   0.08997
H          H       0.63446   0.99007   0.59698   0.12733
H          H       0.66413   0.07039   0.75124   0.11030
H          H       0.53364   0.97619   0.92167   0.13435
H          H       0.92311   0.11194   0.32948   0.14975
H          H       0.82020   0.22121   0.20952   0.09775
H          H       0.02065   0.12384   0.98671   0.09030
H          H       0.13455   0.00977   0.09719   0.12767
H          H       0.16420   0.92967   0.25108   0.10991
H          H       0.03357   0.02411   0.42154   0.13282
H          H       0.92376   0.38821   0.66972   0.15005
H          H       0.82058   0.27908   0.78961   0.09746
H          H       0.02053   0.37645   0.01265   0.09016
H          H       0.13476   0.49041   0.90223   0.12829
H          H       0.16418   0.57121   0.74852   0.11037
H          H       0.03446   0.47741   0.57752   0.13331
H          H       0.07689   0.88806   0.67052   0.14970
H          H       0.17980   0.77879   0.79048   0.09773
H          H       0.97935   0.87616   0.01330   0.09036
H          H       0.86545   0.99023   0.90281   0.12773
H          H       0.83580   0.07033   0.74892   0.11000
H          H       0.96643   0.97589   0.57846   0.13279
H          H       0.07624   0.61179   0.33028   0.15006
H          H       0.17942   0.72092   0.21039   0.09743
H          H       0.97946   0.62355   0.98735   0.09015
H          H       0.86524   0.50959   0.09777   0.12830
H          H       0.83581   0.42878   0.25148   0.11036
H          H       0.96554   0.52259   0.42248   0.13327
H          H       0.57598   0.38820   0.83006   0.15020
H          H       0.67952   0.27914   0.71024   0.09866
H          H       0.47969   0.37625   0.48700   0.09029
H          H       0.36531   0.49018   0.59738   0.12774
H          H       0.33570   0.57117   0.75109   0.11009
H          H       0.46568   0.47726   0.92188   0.13347
H          H       0.57662   0.11210   0.17057   0.14908
H          H       0.67982   0.22112   0.29048   0.09911
H          H       0.47948   0.12392   0.51339   0.09003
H          H       0.36554   0.00993   0.40302   0.12738
H          H       0.33587   0.92960   0.24876   0.11033
H          H       0.46636   0.02381   0.07833   0.13433
C          C       0.44941   0.61181   0.24496  -0.16693
C          C       0.39023   0.67213   0.31116   0.09109
C          C       0.50220   0.61859   0.43660   0.07468
C          C       0.56557   0.55574   0.37503  -0.18191
C          C       0.53897   0.54973   0.27669   0.15559
C          C       0.60376   0.47993   0.21349  -0.09696
C          C       0.59416   0.47415   0.11696  -0.19587
C          C       0.66314   0.40156   0.05659   0.59246
C          C       0.44893   0.88792   0.75445  -0.16526
C          C       0.38994   0.82759   0.68815   0.09024
C          C       0.50222   0.88121   0.56299   0.07320
C          C       0.56539   0.94412   0.62462  -0.18129
C          C       0.53861   0.94996   0.72295   0.15394
C          C       0.60341   0.01931   0.78643  -0.09584
C          C       0.59379   0.02467   0.88299  -0.19769
C          C       0.66289   0.09727   0.94310   0.59204
C          C       0.94886   0.11204   0.25454  -0.16658
C          C       0.88995   0.17240   0.18824   0.09225
C          C       0.00233   0.11871   0.06308   0.07352
C          C       0.06544   0.05581   0.12472  -0.18116
C          C       0.03856   0.04995   0.22304   0.15395
C          C       0.10343   0.98061   0.28647  -0.09405
C          C       0.09389   0.97574   0.38304  -0.19666
C          C       0.16342   0.90431   0.44372   0.59274
C          C       0.94931   0.38825   0.74470  -0.16598
C          C       0.89028   0.32789   0.81098   0.09203
C          C       0.00235   0.38156   0.93626   0.07597
C          C       0.06562   0.44444   0.87466  -0.18263
C          C       0.03893   0.45034   0.77630   0.15443
C          C       0.10369   0.52011   0.71301  -0.09516
C          C       0.09433   0.52593   0.61647  -0.19688
C          C       0.16347   0.59887   0.55653   0.59068
C          C       0.05114   0.88796   0.74546  -0.16665
C          C       0.11005   0.82759   0.81176   0.09228
C          C      -0.00233   0.88129   0.93692   0.07355
C          C       0.93456   0.94419   0.87528  -0.18112
C          C       0.96144   0.95005   0.77696   0.15397
C          C       0.89657   0.01939   0.71353  -0.09408
C          C       0.90611   0.02426   0.61696  -0.19675
C          C       0.83658   0.09569   0.55628   0.59291
C          C       0.05069   0.61175   0.25530  -0.16605
C          C       0.10972   0.67211   0.18902   0.09201
C          C      -0.00236   0.61844   0.06374   0.07587
C          C       0.93438   0.55556   0.12534  -0.18247
C          C       0.96106   0.54965   0.22370   0.15448
C          C       0.89631   0.47989   0.28700  -0.09513
C          C       0.90567   0.47407   0.38353  -0.19692
C          C       0.83653   0.40113   0.44347   0.59060
C          C       0.55059   0.38819   0.75504  -0.16696
C          C       0.60977   0.32787   0.68884   0.09111
C          C       0.49780   0.38141   0.56341   0.07479
C          C       0.43443   0.44426   0.62497  -0.18205
C          C       0.46103   0.45026   0.72331   0.15569
C          C       0.39623   0.52007   0.78651  -0.09711
C          C       0.40583   0.52585   0.88304  -0.19578
C          C       0.33686   0.59844   0.94341   0.59241
C          C       0.55107   0.11208   0.24555  -0.16518
C          C       0.61006   0.17241   0.31185   0.09013
C          C       0.49778   0.11879   0.43701   0.07332
C          C       0.43461   0.05588   0.37538  -0.18120
C          C       0.46139   0.05004   0.27705   0.15387
C          C       0.39659   0.98069   0.21357  -0.09572
C          C       0.40621   0.97532   0.11701  -0.19782
C          C       0.33711   0.90273   0.05690   0.59200
N          N       0.41436   0.67486   0.40610  -0.23725
N          N       0.41437   0.82481   0.59324  -0.23677
N          N       0.91446   0.17513   0.09335  -0.23779
N          N       0.91455   0.32512   0.90588  -0.23814
N          N       0.08553   0.82487   0.90665  -0.23786
N          N       0.08545   0.67488   0.09413  -0.23814
N          N       0.58564   0.32514   0.59390  -0.23733
N          N       0.58563   0.17518   0.40676  -0.23688
O          O       0.64522   0.39446   0.96798  -0.54600
O          O       0.74135   0.34813   0.09917  -0.56646
O          O       0.64467   0.10567   0.03149  -0.54284
O          O       0.74186   0.14968   0.90030  -0.56579
O          O       0.14787   0.89996   0.53275  -0.54399
O          O       0.24038   0.84937   0.40045  -0.56655
O          O       0.14733   0.60514   0.46757  -0.54522
O          O       0.24044   0.65360   0.59968  -0.56512
O          O       0.85213   0.10004   0.46725  -0.54414
O          O       0.75962   0.15063   0.59955  -0.56654
O          O       0.85267   0.39486   0.53243  -0.54513
O          O       0.75956   0.34640   0.40032  -0.56507
O          O       0.35478   0.60554   0.03202  -0.54597
O          O       0.25864   0.65187   0.90083  -0.56644
O          O       0.35533   0.89433   0.96851  -0.54292
O          O       0.25814   0.85032   0.09970  -0.56566

