data_crystal

_audit_creation_method 'AiiDA-DDEC plugin'

_cell_length_a        11.62205
_cell_length_b        12.75382
_cell_length_c        12.75271

_cell_angle_alpha     111.18982
_cell_angle_beta     107.68876
_cell_angle_gamma     107.68245

_symmetry_space_group_name_Hall 'P 1'
_symmetry_space_group_name_H-M  'P 1'

loop_
_symmetry_equiv_pos_as_xyz
 'x,y,z'

loop_
_atom_site_label
_atom_site_type_symbol
_atom_site_fract_x
_atom_site_fract_y
_atom_site_fract_z
_atom_site_charge
Cd         Cd      0.76294   0.94221   0.44338   0.69570
Cd         Cd      0.31965   0.55657   0.49871   0.69542
Cd         Cd      0.82083   0.50136   0.05789   0.69609
Cd         Cd      0.23706   0.05779   0.55662   0.69567
Cd         Cd      0.68035   0.44343   0.50129   0.69554
Cd         Cd      0.17917   0.49864   0.94211   0.69610
H          H       0.37705   0.43964   0.24630   0.09435
H          H       0.25045   0.31172   0.09540   0.12654
H          H       0.55102   0.59874   0.12882   0.09994
H          H       0.54075   0.60392   0.26485   0.10112
H          H       0.38575   0.40809   0.03888   0.24679
H          H       0.13104   0.75397   0.19337   0.09469
H          H       0.15523   0.90483   0.21643   0.12632
H          H       0.42225   0.87104   0.46968   0.09955
H          H       0.27601   0.73524   0.33898   0.10127
H          H       0.34694   0.96138   0.36939   0.24639
H          H       0.93776   0.80668   0.56048   0.09435
H          H       0.93908   0.78386   0.68842   0.12595
H          H       0.95230   0.53005   0.40132   0.09929
H          H       0.93672   0.66077   0.39594   0.10137
H          H       0.97768   0.63076   0.59197   0.24599
H          H       0.62294   0.56035   0.75369   0.09454
H          H       0.74954   0.68827   0.90460   0.12649
H          H       0.44897   0.40126   0.87118   0.10004
H          H       0.45924   0.39607   0.73515   0.10118
H          H       0.61424   0.59191   0.96111   0.24686
H          H       0.86896   0.24603   0.80663   0.09476
H          H       0.84476   0.09516   0.78357   0.12637
H          H       0.57774   0.12896   0.53032   0.09980
H          H       0.72399   0.26476   0.66101   0.10120
H          H       0.65306   0.03861   0.63060   0.24663
H          H       0.06224   0.19332   0.43951   0.09448
H          H       0.06091   0.21614   0.31157   0.12603
H          H       0.04770   0.46995   0.59868   0.09941
H          H       0.06327   0.33923   0.60406   0.10152
H          H       0.02231   0.36924   0.40803   0.24613
C          C       0.29875   0.41556   0.15490  -0.12338
C          C       0.48322   0.59448   0.17286  -0.11691
C          C       0.19318   0.45136   0.17503   0.27227
C          C       0.45377   0.70445   0.19335   0.26915
C          C       0.14400   0.84528   0.26070  -0.12436
C          C       0.31043   0.82716   0.42155  -0.11605
C          C       0.01831   0.82522   0.27634   0.27292
C          C       0.26063   0.80673   0.51112   0.26728
C          C       0.88347   0.73943   0.58458  -0.12360
C          C       0.88874   0.57834   0.40558  -0.11738
C          C       0.74217   0.72382   0.54885   0.27326
C          C       0.74937   0.48886   0.29566   0.26918
C          C       0.70125   0.58444   0.84509  -0.12370
C          C       0.51678   0.40552   0.82713  -0.11692
C          C       0.80681   0.54863   0.82497   0.27243
C          C       0.54622   0.29554   0.80665   0.26928
C          C       0.85599   0.15472   0.73930  -0.12460
C          C       0.68956   0.17284   0.57845  -0.11611
C          C       0.98168   0.17478   0.72366   0.27300
C          C       0.73936   0.19327   0.48888   0.26744
C          C       0.11652   0.26056   0.41541  -0.12354
C          C       0.11125   0.42166   0.59442  -0.11756
C          C       0.25782   0.27618   0.45114   0.27320
C          C       0.25062   0.51114   0.70434   0.26921
N          N       0.35832   0.47065   0.08814  -0.30488
N          N       0.17868   0.48201   0.28139  -0.25748
N          N       0.06708   0.50005   0.25784  -0.07522
N          N       0.01804   0.48216   0.14156  -0.04349
N          N       0.09422   0.45066   0.08635  -0.27292
N          N       0.33470   0.69384   0.12199  -0.27376
N          N       0.34816   0.81330   0.16550  -0.07887
N          N       0.47111   0.89328   0.26093  -0.08777
N          N       0.54039   0.82706   0.28023  -0.27092
N          N       0.27024   0.91193   0.38256  -0.30470
N          N       0.89751   0.71885   0.20063  -0.25818
N          N       0.80940   0.74232   0.24215  -0.07516
N          N       0.87656   0.85859   0.34051  -0.04464
N          N       0.00797   0.91387   0.36425  -0.27204
N          N       0.21269   0.87794   0.57169  -0.27219
N          N       0.18285   0.83458   0.64781  -0.07920
N          N       0.21070   0.73936   0.63265  -0.08797
N          N       0.26065   0.72004   0.54710  -0.26996
N          N       0.88772   0.61750   0.52944  -0.30262
N          N       0.69702   0.79954   0.51825  -0.25765
N          N       0.56732   0.75781   0.50006  -0.07569
N          N       0.53614   0.65932   0.51777  -0.04398
N          N       0.64389   0.63568   0.54933  -0.27293
N          N       0.64085   0.42797   0.30615  -0.27382
N          N       0.53495   0.35201   0.18662  -0.07975
N          N       0.57797   0.36765   0.10673  -0.08605
N          N       0.71343   0.45327   0.17306  -0.27169
N          N       0.64167   0.52934   0.91186  -0.30487
N          N       0.82131   0.51798   0.71861  -0.25732
N          N       0.93291   0.49995   0.74216  -0.07518
N          N       0.98195   0.51783   0.85844  -0.04405
N          N       0.90577   0.54934   0.91365  -0.27284
N          N       0.66529   0.30616   0.87801  -0.27410
N          N       0.65183   0.18670   0.83449  -0.07922
N          N       0.52889   0.10671   0.73907  -0.08746
N          N       0.45960   0.17294   0.71977  -0.27068
N          N       0.72975   0.08807   0.61744  -0.30470
N          N       0.10248   0.28115   0.79937  -0.25805
N          N       0.19060   0.25767   0.75784  -0.07565
N          N       0.12343   0.14141   0.65948  -0.04473
N          N       0.99202   0.08612   0.63574  -0.27179
N          N       0.78731   0.12206   0.42831  -0.27242
N          N       0.81714   0.16542   0.35218  -0.07922
N          N       0.78929   0.26063   0.36734  -0.08806
N          N       0.73934   0.27996   0.45290  -0.26988
N          N       0.11227   0.38250   0.47056  -0.30267
N          N       0.30297   0.20046   0.48174  -0.25744
N          N       0.43267   0.24218   0.49994  -0.07579
N          N       0.46385   0.34068   0.48223  -0.04439
N          N       0.35610   0.36431   0.45066  -0.27281
N          N       0.35914   0.57203   0.69385  -0.27384
N          N       0.46504   0.64798   0.81338  -0.08000
N          N       0.42202   0.63235   0.89327  -0.08652
N          N       0.28656   0.54673   0.82694  -0.27119

