data_crystal

_audit_creation_method 'AiiDA-DDEC plugin'

_cell_length_a         8.63069
_cell_length_b        13.17972
_cell_length_c        14.20508

_cell_angle_alpha     62.09496
_cell_angle_beta     84.46969
_cell_angle_gamma     78.06510

_symmetry_space_group_name_Hall 'P 1'
_symmetry_space_group_name_H-M  'P 1'

loop_
_symmetry_equiv_pos_as_xyz
 'x,y,z'

loop_
_atom_site_label
_atom_site_type_symbol
_atom_site_fract_x
_atom_site_fract_y
_atom_site_fract_z
_atom_site_charge
Co         Co      0.79703   0.51110   0.18254   0.81759
Co         Co      0.30126   0.69427   0.81690   0.81574
H          H       0.54610   0.16312   0.82298   0.10863
H          H       0.68978   0.56312   0.96364   0.10700
H          H       0.44166   0.04654   0.75690   0.11128
H          H       0.59858   0.06311   0.11852   0.10475
H          H       0.92748   0.98362   0.51124   0.12273
H          H       0.21117   0.58581   0.52278   0.10292
H          H       0.42654   0.49211   0.48790   0.12188
H          H       0.96371   0.70268   0.89176   0.09283
H          H       0.93914   0.80337   0.24369   0.11116
H          H       0.72989   0.13883   0.17880   0.12072
H          H       0.10410   0.33922   0.11528   0.12275
H          H       0.80194   0.63962   0.40406   0.12026
H          H       0.04555   0.98581   0.17712   0.10963
H          H       0.31333   0.37585   0.23657   0.10488
H          H       0.57106   0.27140   0.89364   0.10577
H          H       0.97345   0.05707   0.85402   0.11473
H          H       0.19159   0.52858   0.03373   0.10591
H          H       0.86677   0.87396   0.92221   0.10303
H          H       0.46055   0.59186   0.10811   0.09353
H          H       0.60662   0.45401   0.88288   0.12151
H          H       0.06892   0.16601   0.10567   0.10572
H          H       0.19598   0.62376   0.18471   0.13394
H          H       0.69904   0.81279   0.81540   0.13381
H          H       0.53342   0.93712   0.65936   0.12682
H          H       0.05271   0.16421   0.50579   0.10875
H          H       0.56645   0.25725   0.33006   0.10267
H          H       0.30478   0.04116   0.59947   0.12073
H          H       0.36526   0.79502   0.07868   0.10425
H          H       0.31594   0.50973   0.75245   0.09649
H          H       0.47072   0.91051   0.14630   0.11528
H          H       0.68211   0.46182   0.39924   0.10466
H          H       0.23186   0.31807   0.82174   0.12106
H          H       0.03059   0.59298   0.34177   0.12668
H          H       0.07384   0.58945   0.66712   0.10143
H          H       0.81152   0.26205   0.24730   0.09674
H          H       0.82462   0.61581   0.76296   0.10514
H          H       0.70914   0.11273   0.47497   0.10403
H          H       0.18349   0.86311   0.59925   0.10395
H          H       0.55381   0.67029   0.50000   0.10932
H          H       0.10040   0.18240   0.88167   0.10424
C          C       0.31271   0.30292   0.31580  -0.09837
C          C       0.45387   0.23620   0.36796  -0.13989
C          C       0.50460   0.08358   0.87938  -0.13566
C          C       0.89706   0.82670   0.08684  -0.02969
C          C       0.67397   0.64473   0.63735  -0.04009
C          C       0.80355   0.82808   0.76492  -0.16505
C          C       0.71793   0.23252   0.12815  -0.17578
C          C       0.51491   0.04568   0.98983   0.10328
C          C       0.60771   0.07471   0.51925  -0.11589
C          C       0.95701   0.61121   0.52959   0.10793
C          C       0.26742   0.46776   0.83227   0.06878
C          C       0.16660   0.18251   0.46815  -0.10171
C          C       0.46354   0.94070   0.06092  -0.13028
C          C       0.34898   0.83995   0.87195   0.54590
C          C       0.07637   0.14389   0.96697  -0.10275
C          C       0.84577   0.71217   0.12887   0.54308
C          C       0.80813   0.63403   0.48266  -0.13766
C          C       0.76441   0.29997   0.16715   0.06665
C          C       0.30777   0.11431   0.52003  -0.13823
C          C       0.01547   0.03584   0.01043   0.10356
C          C       0.09966   0.20071   0.02156  -0.14830
C          C       0.19939   0.47919   0.98928   0.08668
C          C       0.13135   0.58322   0.38810  -0.14861
C          C       0.45466   0.14074   0.47058   0.10631
C          C       0.10820   0.59220   0.47987  -0.11706
C          C       0.28654   0.56342   0.34332   0.15085
C          C       0.44852   0.57014   0.19221   0.07851
C          C       0.57569   0.11017   0.03305  -0.10284
C          C       0.07318   0.85718   0.64388   0.09247
C          C       0.42796   0.51704   0.40324  -0.18416
C          C       0.00417   0.96280   0.12091  -0.13918
C          C       0.82115   0.62083   0.68467  -0.09758
C          C       0.94551   0.86013   0.15852  -0.09815
C          C       0.16739   0.27770   0.36573  -0.04127
C          C       0.95151   0.76537   0.80756   0.07716
C          C       0.30062   0.58929   0.23505  -0.16644
C          C       0.69813   0.46890   0.00899   0.08700
C          C       0.78896   0.91047   0.65639   0.14981
C          C       0.39846   0.91275   0.91376  -0.03313
C          C       0.15039   0.37218   0.03455  -0.17388
C          C       0.52572   0.66460   0.69384   0.53818
C          C       0.60047   0.22166   0.97801  -0.14925
C          C       0.21953   0.36145   0.87170  -0.17700
C          C       0.66910   0.65103   0.53589  -0.10123
C          C       0.57115   0.49951   0.35525   0.09302
C          C       0.63322   0.97441   0.61202  -0.15038
C          C       0.90595   0.89940   0.97711  -0.08578
C          C       0.65117   0.40648   0.96406  -0.17329
C          C       0.92986   0.92356   0.59605  -0.18454
C          C       0.65729   0.28519   0.02375   0.14856
C          C       0.44699   0.01829   0.84197  -0.09933
C          C       0.96010   0.60568   0.63099  -0.13994
C          C       0.40512   0.87555   0.02353  -0.08361
C          C       0.96526   0.00194   0.93947  -0.12789
C          C       0.15711   0.31013   0.97567   0.14850
C          C       0.01690   0.35256   0.31077   0.53934
N          N       0.08555   0.77869   0.74855  -0.25562
N          N       0.75388   0.41761   0.10988  -0.27422
N          N       0.25709   0.52825   0.88888  -0.27291
N          N       0.58288   0.52559   0.25085  -0.25610
O          O       0.39048   0.67814   0.65695  -0.56535
O          O       0.34175   0.87698   0.77201  -0.54274
O          O       0.53786   0.66658   0.78296  -0.54465
O          O       0.83434   0.65045   0.22869  -0.54350
O          O       0.88289   0.32751   0.34835  -0.56683
O          O       0.02775   0.44514   0.22161  -0.54690
O          O       0.32035   0.73694   0.93735  -0.54999
O          O       0.81996   0.67345   0.06399  -0.54782

