data_crystal

_audit_creation_method 'AiiDA-DDEC plugin'

_cell_length_a        10.74873
_cell_length_b        12.14977
_cell_length_c        15.27862

_cell_angle_alpha     97.02204
_cell_angle_beta     99.25462
_cell_angle_gamma     105.62899

_symmetry_space_group_name_Hall 'P 1'
_symmetry_space_group_name_H-M  'P 1'

loop_
_symmetry_equiv_pos_as_xyz
 'x,y,z'

loop_
_atom_site_label
_atom_site_type_symbol
_atom_site_fract_x
_atom_site_fract_y
_atom_site_fract_z
_atom_site_charge
Cu         Cu      0.85055   0.72368   0.12832   0.27898
Cu         Cu      0.57691   0.49698   0.12067   0.23733
Cu         Cu     -0.00106   0.32658   0.04350   0.22428
Cu         Cu      0.28202   0.57256   0.03922   0.19971
Cu         Cu      0.61206   0.59036   0.50113   0.19085
Cu         Cu      0.14945   0.27633   0.87168   0.27896
Cu         Cu      0.42309   0.50302   0.87933   0.23726
Cu         Cu      0.00107   0.67343   0.95650   0.22424
Cu         Cu      0.71798   0.42744   0.96078   0.19966
Cu         Cu      0.38794   0.40964   0.49887   0.19083
H          H       0.60079   0.98654   0.23794   0.27639
H          H       0.61852   0.29477   0.13902   0.10942
H          H       0.72915   0.15519   0.19545   0.10539
H          H       0.37357   0.94519   0.24266   0.10346
H          H       0.25157   0.07956   0.18828   0.12793
H          H       0.25419   0.76513   0.39316   0.12598
H          H       0.42637   0.73230   0.50755   0.09299
H          H       0.54718   0.53783   0.31062   0.08561
H          H       0.38002   0.56312   0.19145   0.09112
H          H       0.08763   0.30177   0.20208   0.10353
H          H       0.27001   0.29639   0.31903   0.08771
H          H       0.17840   0.52654   0.50714   0.09045
H          H       0.99435   0.54407   0.39439   0.12312
H          H       0.57229   0.98959   0.97912   0.11732
H          H       0.90525   0.92024   0.13721   0.08912
H          H       0.04452   0.10811   0.11162   0.07905
H          H       0.72180   0.17712   0.96618   0.07524
H          H       0.39921   0.01346   0.76206   0.27647
H          H       0.38148   0.70523   0.86098   0.10945
H          H       0.27085   0.84481   0.80455   0.10531
H          H       0.62643   0.05481   0.75734   0.10350
H          H       0.74843   0.92045   0.81172   0.12803
H          H       0.74581   0.23487   0.60685   0.12591
H          H       0.57364   0.26770   0.49246   0.09293
H          H       0.45283   0.46218   0.68939   0.08559
H          H       0.61998   0.43688   0.80856   0.09121
H          H       0.91238   0.69824   0.79793   0.10359
H          H       0.72999   0.70362   0.68097   0.08769
H          H       0.82160   0.47346   0.49286   0.09038
H          H       0.00565   0.45593   0.60561   0.12316
H          H       0.42772   0.01042   0.02088   0.11739
H          H       0.09475   0.07976   0.86279   0.08913
H          H       0.95548   0.89189   0.88838   0.07894
H          H       0.27820   0.82289   0.03382   0.07532
C          C       0.35437   0.27718   0.12574   0.21604
C          C       0.42515   0.20271   0.16126  -0.00955
C          C       0.56278   0.22128   0.16401  -0.17049
C          C       0.62538   0.14498   0.19407   0.03054
C          C       0.42172   0.02459   0.22058   0.01590
C          C       0.35708   0.09989   0.19083  -0.16917
C          C       0.19589   0.67575   0.21305   0.21629
C          C       0.30046   0.66589   0.28095   0.02908
C          C       0.31758   0.71470   0.37278  -0.16667
C          C       0.41294   0.69656   0.43666   0.03192
C          C       0.48056   0.58730   0.32680   0.03538
C          C       0.38740   0.60243   0.26031  -0.15979
C          C       0.92323   0.43860   0.21737   0.22526
C          C       0.02646   0.42709   0.28635   0.04602
C          C       0.10568   0.35494   0.26790  -0.17131
C          C       0.20799   0.35103   0.33339   0.05495
C          C       0.15646   0.47961   0.43847   0.04556
C          C       0.05285   0.48796   0.37557  -0.16324
C          C       0.63781   0.82861   0.07279   0.22205
C          C       0.72320   0.93879   0.06192   0.03174
C          C       0.67499   0.01373   0.01248  -0.16098
C          C       0.76003   0.11846   0.00351   0.06882
C          C       0.93845   0.07945   0.08594   0.07261
C          C       0.85987   0.97452   0.09884  -0.17994
C          C       0.64564   0.72282   0.87427   0.21600
C          C       0.57485   0.79730   0.83875  -0.00972
C          C       0.43722   0.77872   0.83599  -0.17045
C          C       0.37462   0.85502   0.80593   0.03051
C          C       0.57828   0.97541   0.77943   0.01585
C          C       0.64293   0.90011   0.80917  -0.16912
C          C       0.80411   0.32425   0.78695   0.21624
C          C       0.69954   0.33411   0.71905   0.02924
C          C       0.68243   0.28530   0.62722  -0.16667
C          C       0.58706   0.30345   0.56334   0.03178
C          C       0.51944   0.41271   0.67320   0.03550
C          C       0.61260   0.39757   0.73970  -0.15982
C          C       0.07677   0.56140   0.78263   0.22527
C          C       0.97354   0.57292   0.71366   0.04615
C          C       0.89433   0.64507   0.73210  -0.17117
C          C       0.79201   0.64897   0.66661   0.05505
C          C       0.84354   0.52039   0.56153   0.04542
C          C       0.94715   0.51205   0.62444  -0.16339
C          C       0.36219   0.17139   0.92721   0.22205
C          C       0.27681   0.06121   0.93808   0.03172
C          C       0.32501   0.98628   0.98752  -0.16087
C          C       0.23997   0.88154   0.99650   0.06884
C          C       0.06155   0.92056   0.91406   0.07262
C          C       0.14013   0.02548   0.90116  -0.17998
N          N       0.68206   0.74267   0.10330  -0.21208
N          N       0.57316   0.65354   0.10047  -0.05013
N          N       0.46763   0.68586   0.06929  -0.00876
N          N       0.50452   0.79433   0.05251  -0.24192
N          N       0.89089   0.15326   0.03994  -0.21655
N          N       0.40358   0.38527   0.10491  -0.22641
N          N       0.29531   0.41793   0.07180  -0.06444
N          N       0.18776   0.33303   0.07332  -0.02566
N          N       0.22057   0.24528   0.10597  -0.26146
N          N       0.55624   0.04780   0.22373  -0.19272
N          N       0.06700   0.66093   0.08533  -0.03002
N          N       0.01945   0.70708   0.15201  -0.02269
N          N       0.09741   0.71842   0.23224  -0.27473
N          N       0.17861   0.64038   0.12212  -0.20530
N          N       0.49438   0.63153   0.41615  -0.21400
N          N       0.91303   0.41091   0.12644  -0.18840
N          N       0.80552   0.43787   0.08870  -0.05013
N          N       0.75305   0.47960   0.15483  -0.04299
N          N       0.82421   0.48109   0.23553  -0.27505
N          N       0.23681   0.41304   0.41921  -0.20237
N          N       0.31794   0.25733   0.89670  -0.21227
N          N       0.42685   0.34646   0.89953  -0.05010
N          N       0.53237   0.31414   0.93071  -0.00869
N          N       0.49548   0.20567   0.94750  -0.24186
N          N       0.10912   0.84674   0.96006  -0.21670
N          N       0.59642   0.61473   0.89510  -0.22639
N          N       0.70470   0.58207   0.92820  -0.06449
N          N       0.81224   0.66697   0.92668  -0.02555
N          N       0.77943   0.75472   0.89403  -0.26137
N          N       0.44376   0.95220   0.77627  -0.19282
N          N       0.93300   0.33907   0.91468  -0.02995
N          N       0.98056   0.29292   0.84799  -0.02257
N          N       0.90259   0.28158   0.76776  -0.27499
N          N       0.82139   0.35962   0.87788  -0.20522
N          N       0.50563   0.36847   0.58386  -0.21413
N          N       0.08698   0.58909   0.87357  -0.18835
N          N       0.19448   0.56214   0.91130  -0.04999
N          N       0.24695   0.52040   0.84518  -0.04287
N          N       0.17580   0.51892   0.76447  -0.27543
N          N       0.76319   0.58696   0.58079  -0.20248

