data_crystal

_audit_creation_method 'AiiDA-DDEC plugin'

_cell_length_a         7.24048
_cell_length_b        13.76294
_cell_length_c        17.10311

_cell_angle_alpha     90.06331
_cell_angle_beta     90.17244
_cell_angle_gamma     96.41524

_symmetry_space_group_name_Hall 'P 1'
_symmetry_space_group_name_H-M  'P 1'

loop_
_symmetry_equiv_pos_as_xyz
 'x,y,z'

loop_
_atom_site_label
_atom_site_type_symbol
_atom_site_fract_x
_atom_site_fract_y
_atom_site_fract_z
_atom_site_charge
Zn         Zn      0.85832   0.86359   0.02518   0.98076
Zn         Zn      0.63311   0.14068   0.52767   0.97625
Zn         Zn      0.13410   0.13572   0.97443   0.98038
Zn         Zn      0.36653   0.85961   0.47244   0.97663
H          H       0.79237   0.01075   0.24694   0.14793
H          H       0.85647   0.23996   0.07553   0.13241
H          H       0.80941   0.30937   0.32215   0.12633
H          H       0.66063   0.42620   0.27143   0.09785
H          H       0.64299   0.59795   0.23081   0.12708
H          H       0.02537   0.56313   0.04458   0.11662
H          H       0.02478   0.38642   0.07739   0.11796
H          H       0.67742   0.98975   0.74628   0.14580
H          H       0.65616   0.76090   0.57402   0.13290
H          H       0.69182   0.69352   0.82185   0.12806
H          H       0.84304   0.57290   0.77064   0.09790
H          H       0.85389   0.40104   0.72843   0.12777
H          H       0.46467   0.44070   0.54473   0.11743
H          H       0.47531   0.61796   0.57837   0.11972
H          H       0.20722   0.98908   0.75222   0.14809
H          H       0.14228   0.76051   0.92406   0.13226
H          H       0.19127   0.69027   0.67760   0.12529
H          H       0.34016   0.57380   0.72889   0.09744
H          H       0.35727   0.40197   0.76906   0.12743
H          H       0.97503   0.43662   0.95549   0.11604
H          H       0.97553   0.61319   0.92288   0.11839
H          H       0.32075   0.01022   0.25366   0.14620
H          H       0.34515   0.23911   0.42594   0.13274
H          H       0.30736   0.30642   0.17812   0.12772
H          H       0.15695   0.42662   0.22939   0.09859
H          H       0.14675   0.59864   0.27166   0.12865
H          H       0.53595   0.55907   0.45525   0.11740
H          H       0.52508   0.38156   0.42175   0.11937
C          C       0.80078   0.15831   0.29284  -0.02467
C          C       0.80538   0.08839   0.23285  -0.04615
C          C       0.82710   0.11937   0.15467  -0.02634
C          C       0.84244   0.21842   0.13669  -0.10913
C          C       0.83249   0.28915   0.19608   0.07756
C          C       0.81312   0.25727   0.27444  -0.12954
C          C       0.83703   0.39244   0.17560   0.08170
C          C       0.73739   0.45501   0.22066  -0.12060
C          C       0.72867   0.55129   0.19896  -0.08437
C          C       0.82940   0.58972   0.13382   0.01238
C          C       0.94073   0.53038   0.09193  -0.09297
C          C       0.94086   0.43245   0.11091  -0.12027
C          C       0.78546   0.12535   0.37680   0.54304
C          C       0.84118   0.04743   0.08947   0.59256
C          C       0.80260   0.68980   0.10571   0.53924
C          C       0.68878   0.84384   0.79183  -0.02329
C          C       0.67555   0.91259   0.73180  -0.04612
C          C       0.66458   0.88187   0.65331  -0.02620
C          C       0.66188   0.78312   0.63524  -0.10496
C          C       0.67339   0.71309   0.69514   0.08032
C          C       0.68822   0.74528   0.77388  -0.12700
C          C       0.66596   0.60948   0.67529   0.08037
C          C       0.76461   0.54539   0.71964  -0.11474
C          C       0.76925   0.44888   0.69712  -0.08274
C          C       0.66409   0.41138   0.63248   0.01945
C          C       0.55336   0.47230   0.59157  -0.09568
C          C       0.55822   0.57038   0.61099  -0.11747
C          C       0.72145   0.87979   0.87446   0.53898
C          C       0.65270   0.95429   0.58840   0.59152
C          C       0.68080   0.31036   0.60373   0.53651
C          C       0.19931   0.84127   0.70668  -0.02305
C          C       0.19438   0.91146   0.76643  -0.04638
C          C       0.17204   0.88072   0.84457  -0.02773
C          C       0.15702   0.78173   0.86287  -0.10769
C          C       0.16740   0.71070   0.80372   0.07737
C          C       0.18718   0.74238   0.72530  -0.12946
C          C       0.16298   0.60744   0.82446   0.08180
C          C       0.26295   0.54487   0.77952  -0.12062
C          C       0.27174   0.44851   0.80110  -0.08449
C          C       0.17100   0.40987   0.86619   0.01309
C          C       0.05990   0.46932   0.90817  -0.09091
C          C       0.05939   0.56727   0.88922  -0.12208
C          C       0.21461   0.87428   0.62280   0.53964
C          C       0.15692   0.95268   0.90969   0.59102
C          C       0.19704   0.30961   0.89418   0.53881
C          C       0.30951   0.15614   0.20815  -0.02496
C          C       0.32306   0.08738   0.26818  -0.04636
C          C       0.33521   0.11808   0.34666  -0.02520
C          C       0.33891   0.21685   0.36475  -0.10515
C          C       0.32714   0.28685   0.30488   0.08032
C          C       0.31100   0.25472   0.22613  -0.12606
C          C       0.33472   0.39032   0.32474   0.08167
C          C       0.23593   0.45420   0.28024  -0.11493
C          C       0.23158   0.55069   0.30269  -0.08478
C          C       0.33663   0.58823   0.36731   0.02066
C          C       0.44763   0.52742   0.40833  -0.09434
C          C       0.44259   0.42930   0.38905  -0.11791
C          C       0.27598   0.12012   0.12541   0.53853
C          C       0.34702   0.04571   0.41158   0.59137
C          C       0.31710   0.68880   0.39647   0.53659
O          O       0.74166   0.18996   0.42713  -0.56507
O          O       0.80496   0.95690   0.10650  -0.50805
O          O       0.88680   0.08055   0.02229  -0.53064
O          O       0.93544   0.73872   0.06713  -0.52307
O          O       0.64789   0.71912   0.11861  -0.42442
O          O       0.81454   0.04000   0.39260  -0.40465
O          O       0.72337   0.81429   0.92870  -0.55546
O          O       0.68477   0.04478   0.60689  -0.50417
O          O       0.61232   0.92333   0.51997  -0.52141
O          O       0.53824   0.26206   0.57077  -0.51392
O          O       0.83625   0.27885   0.60975  -0.43604
O          O       0.75678   0.96986   0.88453  -0.41022
O          O       0.25751   0.80969   0.57232  -0.56379
O          O       0.19423   0.04328   0.89304  -0.50790
O          O       0.10989   0.91914   0.97659  -0.52987
O          O       0.06372   0.26140   0.93289  -0.52362
O          O       0.35145   0.28000   0.88125  -0.42162
O          O       0.18694   0.95994   0.60729  -0.40363
O          O       0.26850   0.18558   0.07150  -0.55717
O          O       0.31502   0.95518   0.39313  -0.50483
O          O       0.38736   0.07677   0.47998  -0.52008
O          O       0.45896   0.73805   0.42909  -0.51317
O          O       0.16021   0.71899   0.39162  -0.43419
O          O       0.24552   0.02987   0.11528  -0.40861

