data_crystal

_audit_creation_method 'AiiDA-DDEC plugin'

_cell_length_a         8.16098
_cell_length_b        15.69878
_cell_length_c        20.22516

_cell_angle_alpha     114.34858
_cell_angle_beta     102.71811
_cell_angle_gamma     89.61141

_symmetry_space_group_name_Hall 'P 1'
_symmetry_space_group_name_H-M  'P 1'

loop_
_symmetry_equiv_pos_as_xyz
 'x,y,z'

loop_
_atom_site_label
_atom_site_type_symbol
_atom_site_fract_x
_atom_site_fract_y
_atom_site_fract_z
_atom_site_charge
Cu         Cu      0.37577   0.41098   0.45036   0.42478
Cu         Cu      0.80248   0.25109   0.19525   0.40402
Cu         Cu      0.26723   0.08225   0.06094   0.42734
Cu         Cu      0.04760   0.87840   0.88481   0.39363
Cu         Cu      0.69113   0.74483   0.73365   0.36780
Cu         Cu      0.41276   0.09181   0.71189   0.41688
Cu         Cu      0.94313   0.09518   0.54546   0.42903
Cu         Cu      0.63504   0.23867   0.79785   0.38585
Cu         Cu      0.24454   0.40267   0.93300   0.44130
Cu         Cu      0.11296   0.60159   0.11671   0.40930
Cu         Cu      0.98517   0.75824   0.28683   0.40203
Cu         Cu      0.68411   0.41093   0.28940   0.43150
Cu         Cu      0.65993   0.59685   0.60657   0.46085
Cu         Cu      0.24487   0.69744   0.72364   0.58884
Cu         Cu      0.59407   0.85265   0.84945   0.57512
Cu         Cu      0.85771   0.10380   0.08731   0.59698
Cu         Cu      0.31549   0.21533   0.31728   0.35816
Cu         Cu      0.59628   0.98249   0.39744   0.60263
Cu         Cu      0.07885   0.91351   0.39206   0.40901
Cu         Cu      0.54520   0.83073   0.27396   0.44992
Cu         Cu      0.78651   0.61475   0.11782   0.56035
Cu         Cu      0.81665   0.37215   0.91092   0.58076
Cu         Cu      0.00798   0.28543   0.67668   0.35325
Cu         Cu      0.18442   0.51965   0.59875   0.59412
H          H       0.19855   0.48480   0.33259   0.17042
H          H       0.34790   0.47846   0.27875   0.16521
H          H       0.24532   0.58219   0.31234   0.15762
H          H       0.88503   0.71688   0.47547   0.16082
H          H       0.76403   0.79676   0.53189   0.16105
H          H       0.88044   0.71941   0.56455   0.16828
H          H       0.62923   0.73955   0.38881   0.27367
H          H       0.62988   0.63204   0.32268   0.26520
H          H       0.87125   0.01213   0.65741   0.16834
H          H       0.07341   0.01750   0.71521   0.16727
H          H       0.93790   0.91218   0.67483   0.15757
H          H       0.43329   0.79160   0.52587   0.15479
H          H       0.25507   0.71388   0.46258   0.16575
H          H       0.34474   0.79666   0.43814   0.16455
H          H       0.26062   0.76462   0.60769   0.27998
H          H       0.33043   0.87256   0.67435   0.26578
H          H       0.83458   0.54672   0.73877   0.17953
H          H       0.64820   0.56010   0.77303   0.16615
H          H       0.76957   0.46332   0.76881   0.15775
H          H       0.24093   0.25335   0.55835   0.15454
H          H       0.39646   0.19042   0.51347   0.17368
H          H       0.26240   0.25439   0.47211   0.13576
H          H       0.53485   0.27944   0.68743   0.25949
H          H       0.48679   0.38620   0.74120   0.28614
H          H       0.07969   0.95707   0.25326   0.17648
H          H       0.85648   0.93013   0.22794   0.16736
H          H       0.94310   0.02901   0.22061   0.16217
H          H       0.68888   0.25659   0.43890   0.14995
H          H       0.89578   0.31585   0.47878   0.17641
H          H       0.81087   0.25664   0.52398   0.14057
H          H       0.65129   0.15130   0.29672   0.27059
H          H       0.81414   0.22952   0.31655   0.26620
C          C       0.43370   0.56456   0.39528   0.30522
C          C       0.29783   0.52523   0.32608  -0.46249
C          C       0.65978   0.65313   0.47870   0.28667
C          C       0.80556   0.72551   0.51483  -0.46776
C          C       0.89736   0.34231   0.29198  -0.43815
C          C       0.49151   0.12541   0.08924  -0.19855
C          C       0.06027   0.97470   0.98136  -0.28158
C          C       0.72653   0.90730   0.78841   0.09547
C          C       0.51452   0.00304   0.73921  -0.37055
C          C       0.48237   0.67241   0.67927  -0.44161
C          C       0.98996   0.37665   0.35691   0.04063
C          C       0.64398   0.15947   0.11474  -0.46130
C          C       0.03089   0.03961   0.03950  -0.41796
C          C       0.82239   0.86021   0.81876  -0.52208
C          C       0.62564   0.95829   0.76080  -0.00691
C          C       0.34510   0.62318   0.63784  -0.44117
C          C       0.66723   0.08490   0.56559   0.02147
C          C       0.05066   0.93744   0.59873   0.30748
C          C       0.97809   0.97176   0.66499  -0.46437
C          C       0.20361   0.85576   0.51981   0.28770
C          C       0.31581   0.78574   0.48468  -0.46981
C          C       0.61588   0.15351   0.69884  -0.43923
C          C       0.43827   0.36305   0.90281  -0.19748
C          C       0.10435   0.51222   0.02067  -0.27216
C          C       0.93210   0.61073   0.23463   0.06530
C          C       0.75605   0.50960   0.27275  -0.39302
C          C       0.82392   0.82895   0.33867  -0.36378
C          C       0.63954   0.12049   0.63420   0.03996
C          C       0.56662   0.32902   0.87982  -0.45060
C          C       0.03829   0.44067   0.96107  -0.44732
C          C       0.01129   0.63969   0.19788  -0.53884
C          C       0.84596   0.56118   0.25868   0.01125
C          C       0.71504   0.87651   0.37142  -0.40280
C          C       0.08800   0.41530   0.42669   0.00072
C          C       0.62594   0.45172   0.66339   0.29750
C          C       0.72477   0.50860   0.74050  -0.47688
C          C       0.45003   0.33943   0.56759   0.31459
C          C       0.33035   0.25448   0.52527  -0.46165
C          C       0.71133   0.01598   0.00192   0.12182
C          C       0.44850   0.33921   0.35676  -0.18061
C          C       0.85987   0.67147   0.67906  -0.12552
C          C       0.22931   0.82061   0.84390  -0.00499
C          C       0.02061   0.17878   0.18229  -0.08152
C          C       0.40324   0.12482   0.35011  -0.06780
C          C       0.69377   0.05362   0.50099  -0.47400
C          C       0.95135   0.04884   0.33115   0.32120
C          C       0.95867   0.98770   0.25365  -0.47297
C          C       0.88644   0.16628   0.42711   0.30689
C          C       0.81627   0.25363   0.46943  -0.45933
C          C       0.75790   0.43198   0.00155   0.10871
C          C       0.10696   0.16247   0.64131  -0.16751
C          C       0.20067   0.84163   0.31528  -0.13696
C          C       0.56895   0.75795   0.17557  -0.09123
C          C       0.86767   0.31284   0.81243  -0.09850
C          C       0.04514   0.37877   0.64545  -0.06383
C          C       0.16856   0.45333   0.49424  -0.46372
N          N       0.55654   0.63361   0.40976   0.05559
N          N       0.46151   0.54185   0.45293  -0.21780
N          N       0.56363   0.67433   0.36036  -0.48579
N          N       0.60116   0.59844   0.50576  -0.23468
N          N       0.00886   0.67060   0.69271  -0.33550
N          N       0.36106   0.80180   0.82657  -0.40827
N          N       0.14506   0.19138   0.22919  -0.26132
N          N       0.46438   0.06603   0.36659  -0.33417
N          N       0.63144   0.95492   0.94795  -0.32957
N          N       0.22648   0.14538   0.67776  -0.27243
N          N       0.16435   0.87073   0.58615   0.05411
N          N       0.02358   0.96330   0.54276  -0.20754
N          N       0.22566   0.83022   0.63582  -0.49365
N          N       0.11744   0.91135   0.49299  -0.21648
N          N       0.32531   0.84560   0.29504  -0.29746
N          N       0.63191   0.70723   0.12842  -0.35318
N          N       0.93381   0.30410   0.76393  -0.25612
N          N       0.07759   0.44082   0.63072  -0.34348
N          N       0.72723   0.48222   0.05826  -0.34470
N          N       0.53782   0.35498   0.32319  -0.28088
N          N       0.51990   0.37292   0.64290   0.07912
N          N       0.61828   0.46733   0.60288  -0.22257
N          N       0.46848   0.33572   0.68777  -0.47899
N          N       0.50990   0.39601   0.54262  -0.23063
N          N       0.86834   0.12853   0.35091   0.06199
N          N       0.01661   0.03726   0.39284  -0.22717
N          N       0.77735   0.15964   0.29940  -0.48417
N          N       0.97582   0.11093   0.45309  -0.22276

