data_crystal

_audit_creation_method 'AiiDA-DDEC plugin'

_cell_length_a         9.70068
_cell_length_b        12.11178
_cell_length_c        17.16317

_cell_angle_alpha     97.27577
_cell_angle_beta     90.12934
_cell_angle_gamma     113.67453

_symmetry_space_group_name_Hall 'P 1'
_symmetry_space_group_name_H-M  'P 1'

loop_
_symmetry_equiv_pos_as_xyz
 'x,y,z'

loop_
_atom_site_label
_atom_site_type_symbol
_atom_site_fract_x
_atom_site_fract_y
_atom_site_fract_z
_atom_site_charge
Eu         Eu      0.30045   0.98970   0.56512   1.73781
Eu         Eu      0.69799   0.01107   0.43501   1.74016
Eu         Eu      0.68967   0.99017   0.06536   1.73862
Eu         Eu      0.31160   0.01118   0.93477   1.73902
Ag         Ag      0.72498   0.68925   0.91924   0.42421
Ag         Ag      0.27577   0.31295   0.08084   0.42191
Ag         Ag      0.03669   0.31159   0.58101   0.42445
Ag         Ag      0.96351   0.68885   0.41896   0.42296
H          H       0.49970   0.37077   0.62075   0.13874
H          H       0.43796   0.40283   0.36913   0.11594
H          H       0.50051   0.62983   0.37951   0.13866
H          H       0.46211   0.71037   0.83197   0.08913
H          H       0.53840   0.29050   0.16786   0.08991
H          H       0.03678   0.59862   0.13125   0.11643
H          H       0.24775   0.71028   0.33272   0.08936
H          H       0.87210   0.37154   0.12099   0.13862
H          H       0.96427   0.72219   0.04652   0.10819
H          H       0.88184   0.90347   0.66724   0.13294
H          H       0.24209   0.27880   0.45368   0.10826
H          H       0.60643   0.18846   0.77623   0.14126
H          H       0.02204   0.90301   0.16678   0.13285
H          H       0.75243   0.29068   0.66741   0.08958
H          H       0.39387   0.81231   0.22383   0.14138
H          H       0.58091   0.18767   0.27700   0.14179
H          H       0.91131   0.80478   0.78230   0.10943
H          H       0.56215   0.59777   0.63085   0.11648
H          H       0.84348   0.42146   0.45513   0.10645
H          H       0.12965   0.63145   0.87935   0.13867
H          H       0.03732   0.28024   0.95311   0.10740
H          H       0.57743   0.42180   0.95540   0.10561
H          H       0.11838   0.09801   0.33254   0.13374
H          H       0.75748   0.72139   0.54593   0.10848
H          H       0.08906   0.19631   0.21707   0.11010
H          H       0.15643   0.57870   0.54500   0.10597
H          H       0.97856   0.09809   0.83324   0.13352
H          H       0.89369   0.80493   0.28177   0.10979
H          H       0.96456   0.40421   0.86882   0.11675
H          H       0.10648   0.19577   0.71797   0.10974
H          H       0.41910   0.81299   0.72295   0.14141
H          H       0.42360   0.58063   0.04498   0.10583
C          C       0.77912   0.07098   0.25606   0.46771
C          C       0.64797   0.86727   0.68680   0.01303
C          C       0.73018   0.62501   0.54552   0.09025
C          C       0.52857   0.81084   0.73354  -0.12933
C          C       0.96442   0.93013   0.48594   0.48787
C          C       0.30885   0.93179   0.12177   0.60788
C          C       0.28228   0.81034   0.23406  -0.12874
C          C       0.32227   0.54376   0.00587   0.04327
C          C       0.19685   0.19480   0.23330   0.07514
C          C       0.26964   0.37528   0.45431   0.09001
C          C       0.96470   0.93110   0.98581   0.48830
C          C       0.44788   0.24645   0.20516   0.07917
C          C       0.47159   0.19007   0.26635  -0.12867
C          C       0.71268   0.38202   0.03815  -0.07311
C          C       0.03709   0.07059   0.01538   0.48376
C          C       0.22060   0.92942   0.74413   0.46608
C          C       0.28877   0.62016   0.96199  -0.07324
C          C       0.62072   0.55479   0.59222  -0.12676
C          C       0.21339   0.13911   0.29678  -0.13864
C          C       0.07587   0.86193   0.20271  -0.13607
C          C       0.71809   0.19054   0.76604  -0.12831
C          C       0.78674   0.86225   0.70291  -0.13597
C          C       0.79859   0.24666   0.70497   0.07949
C          C       0.06648   0.44714   0.90748  -0.12764
C          C       0.20170   0.75432   0.29513   0.07988
C          C       0.37472   0.06870   0.37853   0.60853
C          C       0.00310   0.80641   0.26608   0.07274
C          C       0.03257   0.06962   0.51545   0.48619
C          C       0.36075   0.75209   0.47006   0.59974
C          C       0.69207   0.06888   0.87828   0.60712
C          C       0.29066   0.07020   0.75555   0.46685
C          C       0.60964   0.24856   0.03030   0.60024
C          C       0.67890   0.45849   0.99439   0.04359
C          C       0.55254   0.75446   0.79463   0.08082
C          C       0.33078   0.61882   0.46224  -0.07281
C          C       0.35208   0.13417   0.31314   0.01044
C          C       0.77894   0.45807   0.49404   0.04237
C          C       0.21957   0.86656   0.18692   0.01132
C          C      -0.00272   0.19454   0.73386   0.07491
C          C       0.93483   0.55555   0.09263  -0.12783
C          C       0.41278   0.56972   0.41276  -0.04420
C          C       0.39243   0.75322   0.96974   0.60087
C          C       0.22090   0.54217   0.50599   0.04318
C          C       0.89515   0.62571   0.04601   0.09122
C          C       0.15720   0.57118   0.91253  -0.04390
C          C       0.37927   0.44569   0.40776  -0.12681
C          C       0.58722   0.43079   0.58737  -0.04485
C          C       0.10617   0.37681   0.95396   0.09132
C          C       0.70946   0.93016   0.24458   0.46459
C          C       0.62445   0.93313   0.62181   0.60338
C          C       0.92469   0.13911   0.79729  -0.13747
C          C       0.84426   0.43148   0.08767  -0.04451
C          C       0.78098   0.13436   0.81313   0.01122
C          C       0.63907   0.24832   0.53020   0.60023
C          C       0.66906   0.38156   0.53789  -0.07279
C          C       0.80347   0.80637   0.76628   0.07344
N          N       0.68794   0.75317   0.81192  -0.19742
N          N       0.23169   0.42459   0.00301  -0.18547
N          N       0.06511   0.75325   0.31206  -0.19589
N          N       0.31264   0.24796   0.18777  -0.19624
N          N       0.93514   0.24771   0.68796  -0.19694
N          N       0.80761   0.57719   0.49668  -0.18627
N          N       0.76937   0.57772   0.99716  -0.18763
N          N       0.19223   0.42303   0.50322  -0.18592
O          O       0.66670   0.87781   0.30487  -0.54057
O          O       0.84136   0.87142   0.01543  -0.51089
O          O       0.72859   0.96989   0.57466  -0.61918
O          O       0.03030   0.88803   0.93560  -0.55248
O          O       0.55561   0.05562   0.87911  -0.65317
O          O       0.25633   0.78238   0.49607  -0.62779
O          O       0.20837   0.87747   0.80483  -0.54181
O          O       0.85476   0.88749   0.43601  -0.55288
O          O       0.50055   0.94504   0.62059  -0.65171
O          O       0.81932   0.12461   0.32591  -0.54187
O          O       0.97172   0.13017   0.48452  -0.51072
O          O       0.15877   0.13134   0.98471  -0.50915
O          O       0.33624   0.82316   0.94878  -0.62571
O          O       0.18002   0.87613   0.67428  -0.53975
O          O       0.52723   0.78310   0.99601  -0.62770
O          O       0.70057   0.87722   0.17497  -0.54043
O          O       0.44505   0.94458   0.12092  -0.65377
O          O       0.02800   0.87023   0.51537  -0.51130
O          O       0.76051   0.03357   0.92588  -0.62004
O          O       0.51311   0.17815   0.55119  -0.62481
O          O       0.74344   0.21810   0.50392  -0.62669
O          O       0.48699   0.82207   0.44918  -0.62452
O          O       0.13970   0.11155   0.56681  -0.55283
O          O       0.97211   0.11234   0.06665  -0.55157
O          O       0.66627   0.17877   0.05105  -0.62379
O          O       0.33354   0.12237   0.69524  -0.54098
O          O       0.79143   0.12273   0.19530  -0.54240
O          O       0.24083   0.96724   0.07405  -0.62034
O          O       0.49746   0.05488   0.37967  -0.65405
O          O       0.47455   0.21798   0.00407  -0.62799
O          O       0.29969   0.12325   0.82516  -0.54281
O          O       0.27080   0.03384   0.42595  -0.62054

