data_crystal

_audit_creation_method 'AiiDA-DDEC plugin'

_cell_length_a        13.92646
_cell_length_b        13.90562
_cell_length_c        16.48050

_cell_angle_alpha     66.62876
_cell_angle_beta     66.50491
_cell_angle_gamma     72.41503

_symmetry_space_group_name_Hall 'P 1'
_symmetry_space_group_name_H-M  'P 1'

loop_
_symmetry_equiv_pos_as_xyz
 'x,y,z'

loop_
_atom_site_label
_atom_site_type_symbol
_atom_site_fract_x
_atom_site_fract_y
_atom_site_fract_z
_atom_site_charge
Nd         Nd      0.34537   0.05904   0.49835   1.98262
Nd         Nd      0.94016   0.65235   0.00195   1.98248
Nd         Nd      0.65247   0.94104   0.50187   1.98186
Nd         Nd      0.05823   0.34731  -0.00194   1.97737
H          H       0.15885   0.26120   0.26279   0.14490
H          H       0.04438   0.59834   0.21587   0.14466
H          H       0.14711   0.40640   0.45489   0.14427
H          H       0.41988   0.36934   0.35767   0.14829
H          H       0.73781   0.84066   0.23736   0.14529
H          H       0.40167   0.95743   0.28397   0.14370
H          H       0.59241   0.85211   0.04557   0.14429
H          H       0.63355   0.57802   0.14029   0.14700
H          H       0.84032   0.73878   0.73700   0.14535
H          H       0.95664   0.40223   0.78292   0.14408
H          H       0.85199   0.59345   0.54474   0.14497
H          H       0.57774   0.63321   0.64140   0.14403
H          H       0.26096   0.15914   0.76256   0.14486
H          H       0.59771   0.04406   0.71585   0.14448
H          H       0.40525   0.14744   0.95501   0.14450
H          H       0.36714   0.42208   0.85942   0.14788
H          H       0.75246   0.24402   0.25020   0.14095
H          H       0.24428   0.75491   0.75015   0.14009
C          C       0.15842   0.32291   0.36424  -0.02179
C          C       0.14041   0.33140   0.28378  -0.06786
C          C       0.09824   0.43024   0.23054  -0.04192
C          C       0.07613   0.52104   0.25681  -0.11045
C          C       0.09460   0.51031   0.33728   0.06685
C          C       0.13433   0.41278   0.39202  -0.09431
C          C       0.20484   0.21958   0.42134   0.56102
C          C       0.07401   0.43829   0.14733   0.64642
C          C       0.58497   0.29512   0.31196  -0.02917
C          C       0.49980   0.38049   0.31085  -0.11414
C          C       0.56730   0.18669   0.37849   0.65360
C          C       0.67604   0.84122   0.13563  -0.02109
C          C       0.66798   0.85939   0.21599  -0.06773
C          C       0.56933   0.90217   0.26918  -0.04349
C          C       0.47860   0.92487   0.24307  -0.10817
C          C       0.48897   0.90591   0.16293   0.06489
C          C       0.58619   0.86554   0.10815  -0.09391
C          C       0.77864   0.79392   0.07829   0.56356
C          C       0.56088   0.92590   0.35274   0.64880
C          C       0.70481   0.41174   0.18722  -0.03013
C          C       0.62104   0.49854   0.18747  -0.11301
C          C       0.81406   0.42600   0.12056   0.65113
C          C       0.84078   0.67693   0.63532  -0.02167
C          C       0.85899   0.66881   0.71559  -0.06873
C          C       0.90199   0.57021   0.76839  -0.04094
C          C       0.92426   0.47934   0.74225  -0.10925
C          C       0.90527   0.48971   0.66216   0.06738
C          C       0.86510   0.58705   0.60749  -0.09575
C          C       0.79328   0.77993   0.57874   0.56242
C          C       0.92642   0.56251   0.85130   0.64574
C          C       0.41200   0.70591   0.68798  -0.03256
C          C       0.49804   0.62151   0.68845  -0.11045
C          C       0.42793   0.81467   0.62130   0.65426
C          C       0.32239   0.15893   0.86420  -0.02192
C          C       0.33083   0.14064   0.78379  -0.06714
C          C       0.42961   0.09799   0.73064  -0.04340
C          C       0.52027   0.07591   0.75670  -0.10927
C          C       0.50953   0.09458   0.83709   0.06658
C          C       0.41204   0.13452   0.89203  -0.09399
C          C       0.21941   0.20678   0.92078   0.56265
C          C       0.43792   0.07405   0.64726   0.64810
C          C       0.29398   0.58744   0.81305  -0.03364
C          C       0.37878   0.50171   0.81222  -0.11241
C          C       0.18517   0.57107   0.87977   0.65343
C          C       0.68681   0.31069   0.24992  -0.07186
C          C       0.51993   0.48080   0.24901   0.05682
C          C       0.31057   0.68890   0.75043  -0.06879
C          C       0.47926   0.52083   0.75015   0.05742
N          N       0.06965   0.60503   0.36684   0.52943
N          N       0.39429   0.93088   0.13386   0.52559
N          N       0.93029   0.39473   0.63313   0.52978
N          N       0.60447   0.06971   0.86593   0.52656
N          N       0.43063   0.57190   0.24863   0.52310
N          N       0.56952   0.43087   0.74968   0.52561
O          O       0.21330   0.21506   0.49767  -0.60399
O          O       0.24074   0.13804   0.39262  -0.62048
O          O       0.08979   0.35375   0.12795  -0.62036
O          O       0.03708   0.53022   0.09955  -0.70252
O          O       0.03805   0.69183   0.31518  -0.32377
O          O       0.08112   0.59101   0.44192  -0.33914
O          O       0.64797   0.11756   0.39295  -0.64378
O          O       0.47135   0.17055   0.41669  -0.67842
O          O       0.45268   0.66191   0.20056  -0.32831
O          O       0.78306   0.78569   0.00197  -0.60337
O          O       0.85987   0.75677   0.10735  -0.62616
O          O       0.64507   0.90931   0.37253  -0.62206
O          O       0.46880   0.96292   0.40047  -0.70436
O          O       0.30762   0.96271   0.18570  -0.32080
O          O       0.40838   0.91900   0.05888  -0.33722
O          O       0.88119   0.34362   0.10711  -0.63886
O          O       0.83393   0.52075   0.08081  -0.68718
O          O       0.33980   0.55209   0.29641  -0.32872
O          O       0.78727   0.78551   0.50121  -0.60547
O          O       0.75398   0.86017   0.60943  -0.62362
O          O       0.90903   0.64695   0.87129  -0.61943
O          O       0.96519   0.47089   0.89811  -0.70307
O          O       0.96205   0.30821   0.68500  -0.32384
O          O       0.91866   0.40832   0.55821  -0.33959
O          O       0.34637   0.88237   0.60736  -0.64249
O          O       0.52317   0.83315   0.58225  -0.68277
O          O       0.54884   0.34037   0.79776  -0.32983
O          O       0.21354   0.21291  -0.00161  -0.60237
O          O       0.13954   0.24639   0.88989  -0.62288
O          O       0.35357   0.08940   0.62808  -0.62251
O          O       0.53006   0.03811   0.59889  -0.70173
O          O       0.69107   0.03812   0.81385  -0.32185
O          O       0.59077   0.08133   0.94091  -0.33769
O          O       0.11629   0.65275   0.89248  -0.64121
O          O       0.16745   0.47567   0.92020  -0.68056
O          O       0.65971   0.45218   0.70117  -0.32971

