data_crystal

_audit_creation_method 'AiiDA-DDEC plugin'

_cell_length_a        13.94369
_cell_length_b        13.94402
_cell_length_c        14.01306

_cell_angle_alpha     110.59662
_cell_angle_beta     90.00000
_cell_angle_gamma     90.00000

_symmetry_space_group_name_Hall 'P 1'
_symmetry_space_group_name_H-M  'P 1'

loop_
_symmetry_equiv_pos_as_xyz
 'x,y,z'

loop_
_atom_site_label
_atom_site_type_symbol
_atom_site_fract_x
_atom_site_fract_y
_atom_site_fract_z
_atom_site_charge
Zn         Zn      0.05451   0.90802   0.95953   0.83200
Zn         Zn      0.55451   0.09197   0.54047   0.83222
Zn         Zn      0.94549   0.09197   0.04047   0.83222
Zn         Zn      0.44549   0.90802   0.45953   0.83209
H          H       0.89478   0.59596   0.15315   0.27102
H          H       0.92453   0.74098   0.11565   0.12328
H          H       0.76363   0.01398   0.26831   0.13213
H          H       0.69303   0.73496   0.31890   0.13336
H          H       0.02992   0.30077   0.11823   0.11395
H          H       0.97561   0.48170   0.18497   0.13001
H          H       0.68377   0.37023   0.15801   0.13496
H          H       0.75165   0.19066   0.08930   0.11790
H          H       0.39478   0.40403   0.34685   0.27100
H          H       0.42453   0.25901   0.38435   0.12322
H          H       0.26363   0.98601   0.23169   0.13225
H          H       0.19303   0.26503   0.18110   0.13320
H          H       0.52993   0.69923   0.38177   0.11393
H          H       0.47561   0.51830   0.31503   0.13013
H          H       0.18377   0.62977   0.34200   0.13495
H          H       0.25166   0.80934   0.41070   0.11783
H          H       0.10523   0.40403   0.84685   0.27097
H          H       0.07547   0.25901   0.88435   0.12321
H          H       0.23637   0.98601   0.73169   0.13236
H          H       0.30697   0.26503   0.68111   0.13317
H          H       0.97008   0.69923   0.88177   0.11387
H          H       0.02439   0.51829   0.81503   0.13012
H          H       0.31623   0.62977   0.84200   0.13506
H          H       0.24835   0.80933   0.91070   0.11787
H          H       0.60522   0.59596   0.65316   0.27100
H          H       0.57547   0.74098   0.61566   0.12322
H          H       0.73637   0.01398   0.76831   0.13213
H          H       0.80697   0.73496   0.81890   0.13347
H          H       0.47008   0.30076   0.61824   0.11398
H          H       0.52439   0.48170   0.68497   0.12999
H          H       0.81623   0.37023   0.65801   0.13499
H          H       0.74835   0.19066   0.58930   0.11795
C          C       0.81218   0.72515   0.21690   0.22705
C          C       0.86739   0.77849   0.16852  -0.20575
C          C       0.84921   0.88181   0.18548  -0.01184
C          C       0.77725   0.93340   0.25390  -0.11813
C          C       0.72174   0.87964   0.30139  -0.00679
C          C       0.73788   0.77552   0.28262  -0.18443
C          C       0.77946   0.54647   0.21241   0.45690
C          C       0.95391   0.31972   0.12652   0.10515
C          C       0.92207   0.42092   0.16302  -0.17941
C          C       0.82325   0.44078   0.17384   0.01114
C          C       0.76061   0.35691   0.14872  -0.14627
C          C       0.79769   0.25806   0.11162   0.09754
C          C       0.90565   0.93336   0.12586   0.58696
C          C       0.64254   0.93164   0.37321   0.59084
C          C       0.31218   0.27485   0.28311   0.22703
C          C       0.36739   0.22151   0.33148  -0.20569
C          C       0.34921   0.11818   0.31452  -0.01188
C          C       0.27724   0.06659   0.24610  -0.11806
C          C       0.22174   0.12036   0.19861  -0.00669
C          C       0.23788   0.22448   0.21739  -0.18444
C          C       0.27946   0.45352   0.28759   0.45700
C          C       0.45391   0.68027   0.37348   0.10520
C          C       0.42207   0.57908   0.33698  -0.17935
C          C       0.32325   0.55922   0.32617   0.01109
C          C       0.26061   0.64309   0.35128  -0.14625
C          C       0.29769   0.74194   0.38838   0.09745
C          C       0.40565   0.06663   0.37414   0.58695
C          C       0.14254   0.06835   0.12679   0.59061
C          C       0.18782   0.27485   0.78311   0.22706
C          C       0.13261   0.22151   0.83148  -0.20570
C          C       0.15079   0.11818   0.81452  -0.01184
C          C       0.22276   0.06659   0.74610  -0.11818
C          C       0.27827   0.12036   0.69861  -0.00656
C          C       0.26212   0.22448   0.71739  -0.18449
C          C       0.22055   0.45352   0.78759   0.45708
C          C       0.04609   0.68027   0.87348   0.10510
C          C       0.07793   0.57907   0.83698  -0.17931
C          C       0.17676   0.55921   0.82617   0.01097
C          C       0.23939   0.64309   0.85128  -0.14623
C          C       0.20231   0.74194   0.88839   0.09738
C          C       0.09435   0.06663   0.87414   0.58676
C          C       0.35747   0.06835   0.62679   0.59063
C          C       0.68782   0.72515   0.71690   0.22682
C          C       0.63261   0.77849   0.66853  -0.20557
C          C       0.65079   0.88181   0.68548  -0.01188
C          C       0.72276   0.93340   0.75390  -0.11823
C          C       0.77827   0.87964   0.80139  -0.00668
C          C       0.76212   0.77552   0.78262  -0.18441
C          C       0.72054   0.54647   0.71241   0.45707
C          C       0.54609   0.31972   0.62652   0.10509
C          C       0.57793   0.42092   0.66302  -0.17936
C          C       0.67675   0.44078   0.67384   0.01098
C          C       0.73939   0.35691   0.64872  -0.14625
C          C       0.70231   0.25806   0.61162   0.09754
C          C       0.59435   0.93336   0.62587   0.58713
C          C       0.85747   0.93164   0.87321   0.59083
N          N       0.83485   0.62077   0.19600  -0.35634
N          N       0.89280   0.23972   0.10050  -0.18923
N          N       0.33485   0.37922   0.30400  -0.35642
N          N       0.39280   0.76027   0.39951  -0.18932
N          N       0.16515   0.37922   0.80400  -0.35649
N          N       0.10720   0.76027   0.89951  -0.18927
N          N       0.66515   0.62077   0.69601  -0.35642
N          N       0.60720   0.23972   0.60050  -0.18916
O          O       0.69965   0.56148   0.25352  -0.46580
O          O       0.97297   0.88033   0.07080  -0.56254
O          O       0.88108   0.02377   0.13314  -0.54024
O          O       0.65563   0.02485   0.42929  -0.53860
O          O       0.56927   0.87655   0.37223  -0.55891
O          O       0.19965   0.43851   0.24648  -0.46588
O          O       0.47297   0.11966   0.42920  -0.56280
O          O       0.38109   0.97622   0.36686  -0.54003
O          O       0.15564   0.97515   0.07071  -0.53818
O          O       0.06927   0.12344   0.12777  -0.55903
O          O       0.30035   0.43851   0.74649  -0.46580
O          O       0.02703   0.11966   0.92920  -0.56276
O          O       0.11892   0.97622   0.86686  -0.53982
O          O       0.34437   0.97514   0.57071  -0.53822
O          O       0.43073   0.12344   0.62777  -0.55910
O          O       0.80035   0.56148   0.75352  -0.46580
O          O       0.52703   0.88033   0.57080  -0.56269
O          O       0.61891   0.02377   0.63314  -0.54035
O          O       0.84437   0.02485   0.92929  -0.53863
O          O       0.93073   0.87655   0.87223  -0.55881

