data_crystal

_audit_creation_method 'AiiDA-DDEC plugin'

_cell_length_a         9.69977
_cell_length_b        12.13195
_cell_length_c        16.77856

_cell_angle_alpha     96.41849
_cell_angle_beta     89.99772
_cell_angle_gamma     113.34974

_symmetry_space_group_name_Hall 'P 1'
_symmetry_space_group_name_H-M  'P 1'

loop_
_symmetry_equiv_pos_as_xyz
 'x,y,z'

loop_
_atom_site_label
_atom_site_type_symbol
_atom_site_fract_x
_atom_site_fract_y
_atom_site_fract_z
_atom_site_charge
Tb         Tb      0.29492   0.99034   0.06675   2.10348
Tb         Tb      0.69714   0.99100   0.56567   2.10575
Tb         Tb      0.70507   0.01047   0.93263   2.10227
Tb         Tb      0.30519   0.01076   0.43448   2.09969
Ag         Ag      0.72204   0.68333   0.41705   0.35577
Ag         Ag      0.96042   0.68279   0.91692   0.35514
Ag         Ag      0.27766   0.31661   0.58288   0.35511
Ag         Ag      0.03915   0.31694   0.08296   0.35513
H          H       0.83715   0.41055   0.95212   0.10700
H          H       0.09622   0.20012   0.72483   0.10907
H          H       0.12416   0.08978   0.83694   0.13287
H          H       0.23966   0.28988   0.94920   0.10512
H          H       0.50926   0.64262   0.87920   0.13978
H          H       0.76029   0.71034   0.05081   0.10593
H          H       0.86529   0.35581   0.62087   0.14018
H          H       0.57364   0.41169   0.45192   0.10670
H          H       0.39855   0.81135   0.72066   0.14366
H          H       0.75579   0.30182   0.17330   0.08844
H          H       0.42624   0.58815   0.54807   0.10659
H          H       0.03380   0.91043   0.66284   0.13327
H          H       0.94827   0.70923   0.55059   0.10558
H          H       0.54481   0.30168   0.67343   0.08836
H          H       0.96541   0.08928   0.33728   0.13399
H          H       0.41317   0.81181   0.22004   0.14392
H          H       0.60113   0.18869   0.27931   0.14351
H          H       0.13462   0.64407   0.37915   0.14043
H          H       0.87571   0.91019   0.16291   0.13246
H          H       0.10305   0.19936   0.22546   0.10900
H          H       0.24395   0.69809   0.82672   0.08827
H          H       0.89644   0.80037   0.77469   0.10921
H          H       0.16293   0.58969   0.04789   0.10669
H          H       0.56013   0.58474   0.13499   0.11592
H          H       0.58672   0.18825   0.77984   0.14369
H          H       0.49096   0.35746   0.12075   0.14019
H          H       0.90372   0.80006   0.27512   0.10959
H          H       0.05146   0.29056   0.44939   0.10587
H          H       0.45516   0.69854   0.32651   0.08824
H          H       0.43987   0.41540   0.86501   0.11614
H          H       0.02261   0.58226   0.63479   0.11663
H          H       0.97727   0.41757   0.36520   0.11646
C          C       0.78033   0.86526   0.19847  -0.13432
C          C       0.77407   0.44729   0.99260   0.04642
C          C       0.03466   0.06886   0.51141   0.49058
C          C       0.41950   0.58194   0.91225  -0.04196
C          C       0.67286   0.44730   0.49251   0.04620
C          C       0.79828   0.25285   0.21002   0.07910
C          C       0.61814   0.54251   0.09487  -0.13081
C          C       0.35761   0.12767   0.81588   0.01256
C          C       0.83648   0.41685   0.58770  -0.04136
C          C       0.71279   0.19068   0.26970  -0.12483
C          C       0.38069   0.05581   0.87896   0.63102
C          C       0.52255   0.80950   0.23006  -0.12540
C          C       0.70782   0.36946   0.53617  -0.07907
C          C       0.03396   0.06977   0.01160   0.48971
C          C       0.67602   0.05592   0.37868   0.62955
C          C       0.62447   0.23624   0.02458   0.62387
C          C       0.45381   0.25270   0.71013   0.07859
C          C       0.29232   0.63072   0.46384  -0.07669
C          C       0.66114   0.36984   0.03606  -0.07930
C          C       0.00699   0.80325   0.76043   0.07128
C          C       0.20144   0.74707   0.78999   0.07979
C          C       0.28685   0.80932   0.73032  -0.12670
C          C       0.47731   0.19052   0.76990  -0.12637
C          C       0.22351   0.93004   0.24565   0.48184
C          C       0.76989   0.12760   0.31560   0.01142
C          C       0.92278   0.54089   0.59474  -0.13095
C          C       0.33916   0.63039   0.96413  -0.07859
C          C       0.22604   0.55292   0.00743   0.04637
C          C       0.88214   0.61255   0.54818   0.09083
C          C       0.99255   0.19654   0.23964   0.07120
C          C       0.61051   0.23649   0.52519   0.62836
C          C       0.38930   0.76405   0.47504   0.62557
C          C       0.37506   0.76396   0.97509   0.62340
C          C       0.91496   0.13448   0.30162  -0.13736
C          C       0.26967   0.38664   0.95166   0.09081
C          C       0.96670   0.93194   0.98826   0.49158
C          C       0.64220   0.87238   0.18409   0.01264
C          C       0.77715   0.06973   0.75449   0.48026
C          C       0.11772   0.38726   0.45176   0.09011
C          C       0.16354   0.58310   0.41234  -0.04138
C          C       0.96482   0.93072   0.48826   0.48950
C          C       0.70649   0.92999   0.74453   0.48287
C          C       0.08455   0.86537   0.69846  -0.13677
C          C       0.32703   0.55272   0.50749   0.04425
C          C       0.21957   0.13480   0.80142  -0.13482
C          C       0.73042   0.61361   0.04838   0.09000
C          C       0.07713   0.45901   0.40527  -0.13078
C          C       0.54612   0.74732   0.28978   0.07832
C          C       0.79629   0.80318   0.26050   0.07092
C          C       0.32369   0.94391   0.62104   0.62776
C          C       0.61926   0.94449   0.12112   0.62930
C          C       0.29410   0.06954   0.25494   0.48246
C          C       0.58074   0.41832   0.08781  -0.04220
C          C       0.20364   0.19688   0.73937   0.07213
C          C       0.22964   0.87235   0.68436   0.01189
C          C       0.38197   0.45771   0.90516  -0.13181
N          N       0.31858   0.25462   0.69325  -0.19156
N          N       0.68137   0.74540   0.30662  -0.19192
N          N       0.75933   0.56676   0.49715  -0.18580
N          N       0.24059   0.43316   0.50276  -0.18591
N          N       0.19317   0.43324   0.00286  -0.18818
N          N       0.93541   0.25457   0.19342  -0.19115
N          N       0.06428   0.74532   0.80664  -0.19160
N          N       0.80692   0.56698   0.99718  -0.18752
O          O       0.20975   0.88093   0.30961  -0.59420
O          O       0.50260   0.04056   0.87712  -0.68266
O          O       0.25835   0.98307   0.57262  -0.65522
O          O       0.16154   0.12653   0.48323  -0.58090
O          O       0.84794   0.88564   0.94358  -0.60165
O          O       0.66832   0.16727   0.54728  -0.66932
O          O       0.66827   0.87994   0.80802  -0.59342
O          O       0.18458   0.87630   0.17477  -0.60728
O          O       0.72293   0.20352   0.99246  -0.65252
O          O       0.50192   0.83185   0.95273  -0.66372
O          O       0.03668   0.88402   0.44337  -0.59249
O          O       0.33105   0.83276   0.45249  -0.66502
O          O       0.78961   0.11996   0.69107  -0.59336
O          O       0.69364   0.87693   0.67359  -0.60967
O          O       0.74166   0.01685   0.42697  -0.65591
O          O       0.47859   0.20491   0.49468  -0.65353
O          O       0.49762   0.96054   0.12317  -0.68188
O          O       0.49816   0.16817   0.04753  -0.66468
O          O       0.83792   0.87317   0.51658  -0.58212
O          O       0.15229   0.11619   0.05635  -0.59966
O          O       0.33245   0.11859   0.19103  -0.59581
O          O       0.30736   0.12384   0.32550  -0.60849
O          O       0.96301   0.11596   0.55634  -0.60040
O          O       0.46082   0.95981   0.62279  -0.67763
O          O       0.03660   0.87409   0.01608  -0.58194
O          O       0.53876   0.04003   0.37712  -0.68002
O          O       0.72246   0.98365   0.07243  -0.65212
O          O       0.27716   0.01645   0.92757  -0.65318
O          O       0.27572   0.79662   0.00639  -0.65395
O          O       0.52120   0.79602   0.50564  -0.65154
O          O       0.81831   0.12295   0.82537  -0.60783
O          O       0.96362   0.12730   0.98373  -0.58032

