data_crystal

_audit_creation_method 'AiiDA-DDEC plugin'

_cell_length_a        11.55436
_cell_length_b        15.20869
_cell_length_c        15.26453

_cell_angle_alpha     111.82721
_cell_angle_beta     96.46535
_cell_angle_gamma     98.51027

_symmetry_space_group_name_Hall 'P 1'
_symmetry_space_group_name_H-M  'P 1'

loop_
_symmetry_equiv_pos_as_xyz
 'x,y,z'

loop_
_atom_site_label
_atom_site_type_symbol
_atom_site_fract_x
_atom_site_fract_y
_atom_site_fract_z
_atom_site_charge
Zn         Zn      0.35090   0.14040   0.73257   0.73047
Zn         Zn      0.64910   0.85960   0.26743   0.73041
H          H       0.33767   0.66545   0.64786   0.10764
H          H       0.34415   0.22813   0.19561   0.10551
H          H       0.44994   0.47149   0.05702   0.12047
H          H       0.39266   0.28562   0.34653   0.11245
H          H       0.31740   0.83630   0.70660   0.12289
H          H       0.80290   0.30271   0.80002   0.12919
H          H       0.32195   0.65623   0.36154   0.10064
H          H       0.88944   0.03113   0.58859   0.13337
H          H       0.32260   0.51929   0.58726   0.12053
H          H       0.97932   0.27316   0.86370   0.12635
H          H       0.73560   0.99134   0.65810   0.12202
H          H       0.37353   0.19951   0.41969   0.11703
H          H       0.30084   0.82924   0.42269   0.09355
H          H       0.42799   0.52531   0.22823   0.10173
H          H       0.36204   0.17495   0.02444   0.12244
H          H       0.58407   0.28893   0.79888   0.10210
H          H       0.52002   0.99048   0.66161   0.09102
H          H       0.10885   0.03363   0.59617   0.09815
H          H       0.34764   0.44861   0.66863   0.12334
H          H       0.37110   0.10692   0.52340   0.10023
H          H       0.35105   0.34608   0.76092   0.10600
H          H       0.19257   0.26811   0.85772   0.10033
H          H       0.66233   0.33455   0.35214   0.10772
H          H       0.65585   0.77187   0.80439   0.10642
H          H       0.55005   0.52851   0.94298   0.12042
H          H       0.60733   0.71438   0.65347   0.11239
H          H       0.68260   0.16370   0.29340   0.12289
H          H       0.19710   0.69729   0.19998   0.12919
H          H       0.67805   0.34377   0.63846   0.10066
H          H       0.11056   0.96887   0.41141   0.13337
H          H       0.67740   0.48071   0.41274   0.12051
H          H       0.02068   0.72684   0.13630   0.12635
H          H       0.26440   0.00866   0.34190   0.12202
H          H       0.62646   0.80049   0.58031   0.11704
H          H       0.69915   0.17076   0.57731   0.09355
H          H       0.57201   0.47469   0.77177   0.10169
H          H       0.63796   0.82505   0.97556   0.12246
H          H       0.41593   0.71107   0.20112   0.10209
H          H       0.47998   0.00952   0.33839   0.09102
H          H       0.89115   0.96637   0.40383   0.09819
H          H       0.65236   0.55139   0.33137   0.12332
H          H       0.62890   0.89308   0.47660   0.10024
H          H       0.64894   0.65392   0.23908   0.10607
H          H       0.80743   0.73189   0.14228   0.10034
C          C       0.32864   0.69958   0.59696  -0.13784
C          C       0.36896   0.28230   0.16683  -0.14052
C          C       0.42658   0.41835   0.08759  -0.09803
C          C       0.37469   0.35770   0.37978  -0.22378
C          C       0.31758   0.79613   0.63096  -0.10548
C          C       0.74367   0.23187   0.76979  -0.17090
C          C       0.91600   0.15043   0.72722   0.09937
C          C       0.32973   0.64753   0.49911   0.03622
C          C       0.31970   0.69578   0.43673  -0.12188
C          C       0.35683   0.39343   0.47514   0.10387
C          C       0.38646   0.38160   0.22529   0.02324
C          C       0.34274   0.54504   0.45972   0.20484
C          C       0.78811   0.14750   0.72908   0.10091
C          C       0.95408   0.08286   0.65064  -0.17570
C          C       0.33914   0.48864   0.51449  -0.22011
C          C       0.00358   0.21931   0.80234  -0.18167
C          C       0.35775   0.33387   0.53319   0.10917
C          C       0.70588   0.05902   0.68944  -0.16433
C          C       0.40681   0.31918   0.02955  -0.03503
C          C       0.36636   0.23598   0.49447  -0.17228
C          C       0.30809   0.79171   0.47052  -0.10434
C          C       0.37235   0.41663   0.32746   0.20832
C          C       0.41537   0.44869   0.18370  -0.12382
C          C       0.37835   0.25162   0.07026  -0.10012
C          C       0.62185   0.22495   0.76789   0.09261
C          C       0.29714   0.94736   0.60150   0.54104
C          C       0.30660   0.84304   0.56777  -0.03658
C          C       0.58567   0.05811   0.69081   0.09273
C          C       0.07538   0.08503   0.65374   0.09243
C          C       0.41056   0.28583   0.92414   0.54543
C          C       0.35123   0.37307   0.63119  -0.16522
C          C       0.36680   0.18319   0.55184   0.08342
C          C       0.35203   0.31618   0.68421   0.07868
C          C       0.12295   0.21652   0.79963   0.08551
C          C       0.67136   0.30043   0.40304  -0.13798
C          C       0.63104   0.71770   0.83317  -0.14142
C          C       0.57342   0.58165   0.91241  -0.09794
C          C       0.62531   0.64230   0.62022  -0.22380
C          C       0.68242   0.20387   0.36904  -0.10544
C          C       0.25633   0.76813   0.23021  -0.17089
C          C       0.08400   0.84957   0.27278   0.09936
C          C       0.67027   0.35247   0.50089   0.03633
C          C       0.68030   0.30422   0.56327  -0.12198
C          C       0.64316   0.60657   0.52486   0.10388
C          C       0.61354   0.61840   0.77471   0.02319
C          C       0.65726   0.45496   0.54028   0.20479
C          C       0.21189   0.85250   0.27092   0.10089
C          C       0.04592   0.91714   0.34935  -0.17574
C          C       0.66085   0.51136   0.48551  -0.22007
C          C       0.99642   0.78069   0.19766  -0.18165
C          C       0.64224   0.66613   0.46681   0.10915
C          C       0.29412   0.94098   0.31056  -0.16432
C          C       0.59319   0.68082   0.97045  -0.03499
C          C       0.63364   0.76402   0.50553  -0.17227
C          C       0.69191   0.20829   0.52948  -0.10434
C          C       0.62765   0.58337   0.67254   0.20835
C          C       0.58463   0.55131   0.81629  -0.12376
C          C       0.62165   0.74838   0.92974  -0.10018
C          C       0.37815   0.77505   0.23211   0.09265
C          C       0.70286   0.05264   0.39850   0.54104
C          C       0.69340   0.15696   0.43223  -0.03660
C          C       0.41433   0.94189   0.30919   0.09277
C          C       0.92461   0.91497   0.34626   0.09243
C          C       0.58944   0.71417   0.07586   0.54542
C          C       0.64877   0.62693   0.36881  -0.16518
C          C       0.63320   0.81681   0.44816   0.08340
C          C       0.64797   0.68382   0.31579   0.07857
C          C       0.87705   0.78348   0.20037   0.08551
N          N       0.35821   0.50873   0.36775  -0.32334
N          N       0.54344   0.13948   0.72856  -0.21640
N          N       0.35918   0.22205   0.64566  -0.22337
N          N       0.15907   0.15006   0.72730  -0.21698
N          N       0.64178   0.49127   0.63225  -0.32335
N          N       0.45656   0.86052   0.27144  -0.21646
N          N       0.64081   0.77795   0.35434  -0.22331
N          N       0.84093   0.84994   0.27270  -0.21696
O          O       0.31798   0.99571   0.69347  -0.53657
O          O       0.37735   0.19316   0.87562  -0.54882
O          O       0.44033   0.34688   0.88923  -0.56578
O          O       0.27364   0.98246   0.54032  -0.57629
O          O       0.68202   0.00429   0.30653  -0.53653
O          O       0.62265   0.80684   0.12438  -0.54882
O          O       0.55967   0.65312   0.11077  -0.56578
O          O       0.72636   0.01754   0.45968  -0.57632

