data_crystal

_audit_creation_method 'AiiDA-DDEC plugin'

_cell_length_a         7.04763
_cell_length_b        12.07327
_cell_length_c        21.02838

_cell_angle_alpha     90.00045
_cell_angle_beta     89.99137
_cell_angle_gamma     89.97695

_symmetry_space_group_name_Hall 'P 1'
_symmetry_space_group_name_H-M  'P 1'

loop_
_symmetry_equiv_pos_as_xyz
 'x,y,z'

loop_
_atom_site_label
_atom_site_type_symbol
_atom_site_fract_x
_atom_site_fract_y
_atom_site_fract_z
_atom_site_charge
Cu         Cu      0.25879   0.84722   0.75008   0.05705
Cu         Cu      0.24218   0.34514   0.24989   0.05740
Cu         Cu      0.74121   0.15279   0.24992   0.05705
Cu         Cu      0.75782   0.65487   0.75011   0.05749
H          H       0.36069   0.18259   0.89550   0.10933
H          H       0.52068   0.25896   0.99058   0.09792
H          H       0.29234   0.99526   0.10420   0.10078
H          H       0.14211   0.91541   0.00839   0.09660
H          H       0.07660   0.91521   0.89789   0.11633
H          H       0.09716   0.03892   0.85334   0.12561
H          H       0.36387   0.76603   0.90358   0.11393
H          H       0.56751   0.78009   0.85515   0.10820
H          H       0.13910   0.68247   0.10451   0.10850
H          H       0.97941   0.75896   0.00944   0.09673
H          H       0.20785   0.49523   0.89579   0.10077
H          H       0.35789   0.41528   0.99159   0.09758
H          H       0.42380   0.41500   0.10203   0.11622
H          H       0.40276   0.53856   0.14668   0.12609
H          H       0.13587   0.26553   0.09630   0.11415
H          H       0.93238   0.27984   0.14479   0.10901
H          H       0.63929   0.81745   0.39550   0.10970
H          H       0.47931   0.74107   0.49059   0.09655
H          H       0.70770   0.00472   0.60421   0.10051
H          H       0.85794   0.08457   0.50839   0.09752
H          H       0.92344   0.08484   0.39790   0.11704
H          H       0.90289   0.96114   0.35334   0.12614
H          H       0.63607   0.23405   0.40358   0.11448
H          H       0.43249   0.21996   0.35514   0.10896
H          H       0.86087   0.31754   0.60452   0.10941
H          H       0.02056   0.24106   0.50944   0.09657
H          H       0.79215   0.50478   0.39581   0.10051
H          H       0.64209   0.58472   0.49162   0.09740
H          H       0.57615   0.58502   0.60206   0.11696
H          H       0.59723   0.46146   0.64672   0.12613
H          H       0.86416   0.73450   0.59629   0.11371
H          H       0.06763   0.72023   0.64478   0.10911
H          H       0.63931   0.81742   0.10450   0.10924
H          H       0.47932   0.74105   0.00942   0.09775
H          H       0.70766   0.00475   0.89580   0.10087
H          H       0.85789   0.08460   0.99161   0.09675
H          H       0.92340   0.08480   0.10211   0.11645
H          H       0.90284   0.96109   0.14666   0.12545
H          H       0.63613   0.23397   0.09642   0.11403
H          H       0.43249   0.21992   0.14485   0.10824
H          H       0.86090   0.31754   0.89548   0.10836
H          H       0.02058   0.24105   0.99056   0.09662
H          H       0.79215   0.50477   0.10421   0.10082
H          H       0.64211   0.58473   0.00841   0.09771
H          H       0.57620   0.58501   0.89797   0.11641
H          H       0.59724   0.46144   0.85332   0.12605
H          H       0.86413   0.73448   0.90370   0.11424
H          H       0.06762   0.72017   0.85520   0.10925
H          H       0.36071   0.18256   0.60450   0.10974
H          H       0.52069   0.25894   0.50941   0.09666
H          H       0.29230   0.99529   0.39579   0.10043
H          H       0.14206   0.91543   0.49161   0.09739
H          H       0.07656   0.91517   0.60210   0.11692
H          H       0.09711   0.03886   0.64666   0.12624
H          H       0.36393   0.76595   0.59642   0.11443
H          H       0.56751   0.78004   0.64486   0.10886
H          H       0.13913   0.68247   0.39548   0.10950
H          H       0.97944   0.75895   0.49056   0.09667
H          H       0.20785   0.49523   0.60419   0.10039
H          H       0.35791   0.41529   0.50838   0.09728
H          H       0.42385   0.41499   0.39794   0.11680
H          H       0.40277   0.53855   0.35328   0.12624
H          H       0.13584   0.26550   0.40371   0.11352
H          H       0.93237   0.27978   0.35521   0.10909
C          C       0.34197   0.14237   0.94142  -0.14389
C          C       0.43090   0.18593   0.99516  -0.14259
C          C       0.41616   0.13286   0.05438   0.11622
C          C       0.30379   0.03768   0.05877  -0.13801
C          C       0.22029   0.99253   0.00476  -0.12601
C          C       0.24044   0.04271   0.94517   0.10401
C          C       0.17199   0.98400   0.88664  -0.23664
C          C       0.47524   0.82418   0.88907  -0.22947
C          C       0.15776   0.64214   0.05863  -0.14267
C          C       0.06900   0.68582   0.00487  -0.14102
C          C       0.08378   0.63286   0.94563   0.11579
C          C       0.19610   0.53760   0.94122  -0.13733
C          C       0.27948   0.49234   0.99526  -0.12742
C          C       0.25925   0.54241   0.05488   0.10302
C          C       0.32804   0.48362   0.11338  -0.23679
C          C       0.02474   0.32385   0.11089  -0.23054
C          C       0.65801   0.85767   0.44141  -0.14479
C          C       0.56908   0.81409   0.49517  -0.14096
C          C       0.58384   0.86714   0.55439   0.11536
C          C       0.69621   0.96230   0.55879  -0.13762
C          C       0.77972   0.00748   0.50475  -0.12702
C          C       0.75953   0.95733   0.44516   0.10413
C          C       0.82803   0.01606   0.38663  -0.23775
C          C       0.52476   0.17587   0.38905  -0.22993
C          C       0.84223   0.35788   0.55864  -0.14427
C          C       0.93097   0.31420   0.50487  -0.14104
C          C       0.91623   0.36716   0.44562   0.11468
C          C       0.80388   0.46240   0.44124  -0.13645
C          C       0.72051   0.50766   0.49529  -0.12737
C          C       0.74077   0.45762   0.55492   0.10438
C          C       0.67194   0.51642   0.61342  -0.23803
C          C       0.97524   0.67619   0.61091  -0.22912
C          C       0.65803   0.85763   0.05858  -0.14389
C          C       0.56910   0.81408   0.00484  -0.14260
C          C       0.58384   0.86715   0.94562   0.11613
C          C       0.69621   0.96232   0.94123  -0.13784
C          C       0.77970   0.00748   0.99524  -0.12601
C          C       0.75955   0.95730   0.05483   0.10393
C          C       0.82800   0.01600   0.11336  -0.23664
C          C       0.52476   0.17582   0.11093  -0.22944
C          C       0.84224   0.35787   0.94137  -0.14250
C          C       0.93100   0.31419   0.99513  -0.14124
C          C       0.91622   0.36715   0.05437   0.11578
C          C       0.80390   0.46240   0.05878  -0.13730
C          C       0.72052   0.50766   0.00474  -0.12739
C          C       0.74075   0.45759   0.94512   0.10305
C          C       0.67196   0.51638   0.88662  -0.23691
C          C       0.97526   0.67616   0.88911  -0.23075
C          C       0.34198   0.14234   0.55859  -0.14485
C          C       0.43092   0.18591   0.50483  -0.14077
C          C       0.41615   0.13287   0.44561   0.11542
C          C       0.30378   0.03770   0.44121  -0.13758
C          C       0.22028   0.99253   0.49525  -0.12714
C          C       0.24047   0.04268   0.55484   0.10410
C          C       0.17196   0.98395   0.61337  -0.23775
C          C       0.47524   0.82413   0.61095  -0.22998
C          C       0.15777   0.64213   0.44136  -0.14437
C          C       0.06902   0.68580   0.49513  -0.14080
C          C       0.08377   0.63285   0.55438   0.11479
C          C       0.19612   0.53761   0.55876  -0.13659
C          C       0.27948   0.49235   0.50471  -0.12739
C          C       0.25922   0.54238   0.44508   0.10444
C          C       0.32805   0.48359   0.38658  -0.23813
C          C       0.02475   0.32382   0.38909  -0.22912
S          S       0.37195   0.93207   0.83825   0.09082
S          S       0.12859   0.43127   0.16187   0.09062
S          S       0.62818   0.06802   0.33823   0.09118
S          S       0.87126   0.56886   0.66193   0.08976
S          S       0.62805   0.06793   0.16175   0.09080
S          S       0.87141   0.56874   0.83813   0.09048
S          S       0.37182   0.93199   0.66177   0.09130
S          S       0.12874   0.43114   0.33807   0.09002
I          I       0.86359   0.86756   0.75007  -0.38286
I          I       0.63717   0.36582   0.24994  -0.38321
I          I       0.13641   0.13244   0.24993  -0.38298
I          I       0.36283   0.63419   0.75006  -0.38332

