data_crystal

_audit_creation_method 'AiiDA-DDEC plugin'

_cell_length_a         9.76812
_cell_length_b        13.67643
_cell_length_c        14.73795

_cell_angle_alpha     90.00000
_cell_angle_beta     90.00000
_cell_angle_gamma     90.00000

_symmetry_space_group_name_Hall 'P 1'
_symmetry_space_group_name_H-M  'P 1'

loop_
_symmetry_equiv_pos_as_xyz
 'x,y,z'

loop_
_atom_site_label
_atom_site_type_symbol
_atom_site_fract_x
_atom_site_fract_y
_atom_site_fract_z
_atom_site_charge
La         La      0.75000   0.88325   0.00000   1.99902
La         La      0.75000   0.61675   0.50000   1.99905
La         La      0.25000   0.11675   0.00000   1.99901
La         La      0.25000   0.38325   0.50000   1.99908
H          H       0.24031   0.03022   0.57234   0.10446
H          H       0.11359   0.88906   0.50022   0.12150
H          H       0.19182   0.07479   0.73195   0.12000
H          H       0.89506   0.84311   0.75034   0.12391
H          H       0.25969   0.03022   0.42766   0.10438
H          H       0.38641   0.88906   0.49978   0.12140
H          H       0.30819   0.07479   0.26804   0.12004
H          H       0.60494   0.84311   0.24966   0.12394
H          H       0.25969   0.46978   0.07234   0.10446
H          H       0.38641   0.61093   0.00022   0.12137
H          H       0.30819   0.42520   0.23195   0.12007
H          H       0.60494   0.65688   0.25034   0.12387
H          H       0.24031   0.46978   0.92766   0.10442
H          H       0.11359   0.61093  -0.00023   0.12130
H          H       0.19182   0.42521   0.76804   0.12006
H          H       0.89506   0.65688   0.74966   0.12395
H          H       0.75969   0.96977   0.42766   0.10443
H          H       0.88641   0.11094   0.49978   0.12136
H          H       0.80819   0.92520   0.26804   0.12007
H          H       0.10494   0.15689   0.24966   0.12394
H          H       0.74031   0.96977   0.57234   0.10450
H          H       0.61359   0.11094   0.50022   0.12139
H          H       0.69182   0.92520   0.73195   0.12009
H          H       0.39506   0.15689   0.75034   0.12388
H          H       0.74031   0.53022   0.92766   0.10443
H          H       0.61359   0.38906  -0.00023   0.12136
H          H       0.69182   0.57479   0.76804   0.12003
H          H       0.39506   0.34311   0.74966   0.12398
H          H       0.75969   0.53022   0.07234   0.10441
H          H       0.88641   0.38906   0.00022   0.12139
H          H       0.80819   0.57479   0.23195   0.11998
H          H       0.10494   0.34311   0.25034   0.12394
C          C       0.97035   0.88389   0.71129  -0.09877
C          C      -0.00323   0.85867   0.62063  -0.01191
C          C       0.01551   0.98857   0.84779   0.64336
C          C       0.16516   0.98827   0.61033  -0.08182
C          C       0.04134   0.96154   0.75124  -0.04574
C          C       0.09524   0.91051   0.57033  -0.08110
C          C       0.13850   0.01390   0.70044  -0.04549
C          C       0.91688   0.77868   0.57717   0.54060
C          C       0.52965   0.88389   0.28871  -0.09871
C          C       0.50323   0.85867   0.37937  -0.01203
C          C       0.48450   0.98857   0.15221   0.64321
C          C       0.33484   0.98827   0.38967  -0.08188
C          C       0.45867   0.96154   0.24876  -0.04566
C          C       0.40476   0.91051   0.42967  -0.08099
C          C       0.36150   0.01390   0.29956  -0.04550
C          C       0.58312   0.77868   0.42283   0.54057
C          C       0.52965   0.61610   0.21129  -0.09879
C          C       0.50323   0.64133   0.12063  -0.01217
C          C       0.48450   0.51143   0.34779   0.64325
C          C       0.33484   0.51173   0.11033  -0.08178
C          C       0.45867   0.53845   0.25124  -0.04564
C          C       0.40476   0.58949   0.07033  -0.08093
C          C       0.36150   0.48610   0.20044  -0.04548
C          C       0.58312   0.72132   0.07717   0.54109
C          C       0.97035   0.61610   0.78871  -0.09890
C          C      -0.00323   0.64133   0.87937  -0.01205
C          C       0.01551   0.51143   0.65221   0.64316
C          C       0.16516   0.51173   0.88967  -0.08182
C          C       0.04134   0.53845   0.74876  -0.04556
C          C       0.09524   0.58949   0.92967  -0.08100
C          C       0.13850   0.48610   0.79956  -0.04539
C          C       0.91688   0.72132   0.92283   0.54102
C          C       0.02965   0.11610   0.28871  -0.09881
C          C       0.00323   0.14133   0.37937  -0.01206
C          C       0.98450   0.01143   0.15221   0.64318
C          C       0.83484   0.01173   0.38967  -0.08187
C          C       0.95867   0.03845   0.24876  -0.04567
C          C       0.90476   0.08949   0.42967  -0.08097
C          C       0.86150   0.98610   0.29956  -0.04544
C          C       0.08312   0.22132   0.42283   0.54093
C          C       0.47035   0.11610   0.71129  -0.09879
C          C       0.49677   0.14133   0.62063  -0.01212
C          C       0.51551   0.01143   0.84779   0.64323
C          C       0.66516   0.01173   0.61033  -0.08182
C          C       0.54134   0.03845   0.75124  -0.04561
C          C       0.59524   0.08949   0.57033  -0.08090
C          C       0.63850   0.98610   0.70044  -0.04558
C          C       0.41688   0.22132   0.57717   0.54083
C          C       0.47035   0.38390   0.78871  -0.09889
C          C       0.49677   0.35867   0.87937  -0.01198
C          C       0.51551   0.48857   0.65221   0.64322
C          C       0.66516   0.48827   0.88967  -0.08187
C          C       0.54134   0.46155   0.74876  -0.04550
C          C       0.59524   0.41051   0.92967  -0.08103
C          C       0.63850   0.51390   0.79956  -0.04546
C          C       0.41688   0.27868   0.92283   0.54075
C          C       0.02965   0.38390   0.21129  -0.09876
C          C       0.00323   0.35867   0.12063  -0.01207
C          C       0.98450   0.48857   0.34779   0.64342
C          C       0.83484   0.48827   0.11033  -0.08178
C          C       0.95867   0.46155   0.25124  -0.04564
C          C       0.90476   0.41051   0.07033  -0.08097
C          C       0.86150   0.51390   0.20044  -0.04550
C          C       0.08312   0.27868   0.07717   0.54070
O          O       0.90851   0.95747   0.88695  -0.60127
O          O       0.10386   0.04285   0.88695  -0.59293
O          O       0.96547   0.73337   0.50907  -0.52529
O          O       0.79848   0.75721   0.60950  -0.56907
O          O       0.59149   0.95747   0.11305  -0.60117
O          O       0.39614   0.04285   0.11305  -0.59284
O          O       0.53453   0.73337   0.49093  -0.52540
O          O       0.70152   0.75721   0.39049  -0.56892
O          O       0.59149   0.54252   0.38695  -0.60121
O          O       0.39614   0.45715   0.38695  -0.59276
O          O       0.53453   0.76663   0.00907  -0.52566
O          O       0.70152   0.74279   0.10950  -0.56916
O          O       0.90851   0.54252   0.61305  -0.60116
O          O       0.10386   0.45715   0.61305  -0.59270
O          O       0.96547   0.76663   0.99093  -0.52570
O          O       0.79848   0.74279   0.89049  -0.56911
O          O       0.09149   0.04252   0.11305  -0.60116
O          O       0.89614   0.95715   0.11305  -0.59275
O          O       0.03453   0.26663   0.49093  -0.52560
O          O       0.20152   0.24279   0.39049  -0.56909
O          O       0.40851   0.04252   0.88695  -0.60122
O          O       0.60386   0.95715   0.88695  -0.59283
O          O       0.46547   0.26663   0.50907  -0.52542
O          O       0.29848   0.24279   0.60950  -0.56914
O          O       0.40851   0.45748   0.61305  -0.60119
O          O       0.60386   0.54285   0.61305  -0.59281
O          O       0.46547   0.23337   0.99093  -0.52556
O          O       0.29848   0.25721   0.89049  -0.56900
O          O       0.09149   0.45748   0.38695  -0.60126
O          O       0.89614   0.54285   0.38695  -0.59293
O          O       0.03453   0.23337   0.00907  -0.52539
O          O       0.20152   0.25721   0.10950  -0.56905

