data_crystal

_audit_creation_method 'AiiDA-DDEC plugin'

_cell_length_a         8.59763
_cell_length_b        14.69720
_cell_length_c        15.75494

_cell_angle_alpha     118.02893
_cell_angle_beta     104.40500
_cell_angle_gamma     90.00136

_symmetry_space_group_name_Hall 'P 1'
_symmetry_space_group_name_H-M  'P 1'

loop_
_symmetry_equiv_pos_as_xyz
 'x,y,z'

loop_
_atom_site_label
_atom_site_type_symbol
_atom_site_fract_x
_atom_site_fract_y
_atom_site_fract_z
_atom_site_charge
Ni         Ni      0.49643   0.33389   0.56403   0.27743
Ni         Ni      0.49638   0.77164   0.43404   0.27832
H          H       0.65917   0.43242   0.47387   0.13085
H          H       0.62110   0.34211   0.26788   0.12860
H          H       0.27998   0.18286   0.32325   0.09578
H          H       0.72586   0.20096   0.42424   0.11123
H          H       0.94179   0.09546   0.49456   0.12535
H          H       0.62881   0.21776   0.68031   0.10726
H          H       0.43755   0.55976   0.64126   0.11402
H          H       0.97391   0.47555   0.65592   0.14003
H          H       0.11958   0.29954   0.56814   0.11059
H          H       0.31105   0.03996   0.17582   0.11239
H          H       0.16725   0.92738   0.99674   0.11988
H          H       0.27800   0.17263   0.93554   0.11817
H          H       0.41100   0.28796   0.11573   0.11879
H          H       0.40276   0.89862   0.84411   0.11077
H          H       0.43646   0.71208   0.76232   0.11557
H          H       0.91694   0.62913   0.68263   0.13370
H          H       0.88864   0.81655   0.76490   0.10608
H          H       0.09565   0.89994   0.65544   0.10789
H          H       0.95556   0.97050   0.54791   0.10892
H          H       0.83869   0.21998   0.80127   0.12090
H          H       0.96674   0.14343   0.90666   0.11217
H          H       0.92991   0.49192   0.83410   0.10650
H          H       0.91565   0.61164   0.83319   0.09508
H          H       0.86877   0.62251   0.98887   0.07891
H          H       0.70567   0.52071   0.91467   0.08978
H          H       0.71627   0.72733   0.91142   0.07270
H          H       0.55263   0.62710   0.85017   0.07723
H          H       0.64027   0.79809   0.05869   0.07107
H          H       0.63956   0.67980   0.05946   0.08430
H          H       0.33972   0.96378   0.52821   0.13070
H          H       0.37938   0.07726   0.73451   0.12960
H          H       0.71513   0.85893   0.67368   0.09552
H          H       0.27094   0.77892   0.57571   0.11147
H          H       0.05868   0.60138   0.50710   0.12642
H          H       0.36425   0.53951   0.31738   0.10763
H          H       0.55755   0.92059   0.35723   0.11354
H          H       0.02038   0.82026   0.34331   0.13997
H          H       0.87229   0.73238   0.42997   0.11078
H          H       0.68556   0.86297   0.82150   0.11235
H          H       0.82990   0.92870   0.00025   0.11953
H          H       0.72248   0.23707   0.06505   0.11836
H          H       0.58922   0.17297   0.88532   0.11849
H          H       0.59569   0.05453   0.15442   0.11049
H          H       0.56010   0.95068   0.23625   0.11439
H          H       0.07886   0.94557   0.31563   0.13380
H          H       0.10904   0.04936   0.23300   0.10677
H          H       0.90474   0.24356   0.34369   0.10866
H          H       0.04378   0.42251   0.45170   0.10829
H          H       0.15950   0.41870   0.19878   0.12045
H          H       0.03280   0.23594   0.09295   0.11123
H          H       0.06306   0.65992   0.16255   0.10661
H          H       0.07974   0.78032   0.16319   0.09615
H          H       0.12801   0.63457   0.00893   0.07873
H          H       0.28885   0.60624   0.08325   0.08983
H          H       0.28293   0.81661   0.08717   0.07205
H          H       0.44494   0.77710   0.14852   0.07628
H          H       0.35823   0.73779   0.93972   0.07067
H          H       0.35949   0.61909   0.93966   0.08408
C          C       0.57489   0.36732   0.41080  -0.04398
C          C       0.55628   0.32370   0.30967  -0.12674
C          C       0.38093   0.23665   0.33749   0.06023
C          C       0.73726   0.18845   0.48780  -0.04680
C          C       0.84472   0.13563   0.52155  -0.12422
C          C       0.68331   0.20021   0.62054   0.06648
C          C       0.33251   0.51332   0.63393   0.07322
C          C       0.09087   0.46652   0.64093  -0.11574
C          C       0.16474   0.38027   0.59703  -0.04618
C          C       0.71957   0.49055   0.72720   0.59601
C          C       0.36607   0.17299   0.15870   0.13160
C          C       0.29926   0.07020   0.12371  -0.17375
C          C       0.21989   0.00645   0.02284  -0.16166
C          C       0.20832   0.04273   0.95348   0.16834
C          C       0.28269   0.14430   0.98845  -0.17594
C          C       0.35892   0.20880   0.08969  -0.16069
C          C       0.14287   0.86946   0.80708   0.15624
C          C       0.29733   0.83923   0.80716  -0.15557
C          C       0.31575   0.73441   0.76096  -0.16339
C          C       0.17913   0.65812   0.71394   0.15235
C          C       0.02407   0.68735   0.71514  -0.16466
C          C       0.00764   0.79283   0.76196  -0.15471
C          C       0.04416   0.01761   0.78963   0.15440
C          C       0.03911   0.96979   0.68752  -0.18274
C          C       0.96122   0.01045   0.62694  -0.15642
C          C       0.88940   0.10118   0.66735   0.13632
C          C       0.89322   0.14920   0.76895  -0.16947
C          C       0.96757   0.10709   0.82876  -0.17533
C          C       0.84550   0.54701   0.82984  -0.30306
C          C       0.77135   0.58694   0.91798  -0.13758
C          C       0.65524   0.66628   0.91823  -0.14782
C          C       0.59207   0.71508   0.01191  -0.15049
C          C       0.42343   0.95999   0.59016  -0.04342
C          C       0.44279   0.01656   0.69150  -0.12601
C          C       0.61523   0.89970   0.66085   0.06402
C          C       0.25897   0.70256   0.51183  -0.04912
C          C       0.15348   0.61509   0.47892  -0.12552
C          C       0.31089   0.58145   0.37785   0.06903
C          C       0.66172   0.88079   0.36435   0.07382
C          C       0.90301   0.82627   0.35776  -0.11689
C          C       0.82802   0.78424   0.40120  -0.04480
C          C       0.27256   0.76545   0.27112   0.59721
C          C       0.63212   0.01412   0.84050   0.13304
C          C       0.69816   0.94555   0.87434  -0.17427
C          C       0.77785   0.98224   0.97502  -0.16052
C          C       0.79059   0.08821   0.04532   0.16684
C          C       0.71692   0.15555   0.01147  -0.17527
C          C       0.64047   0.11924   0.91047  -0.16215
C          C       0.85533   0.06122   0.19114   0.15599
C          C       0.70051   0.03179   0.19122  -0.15519
C          C       0.68104   0.97383   0.23756  -0.16341
C          C       0.81689   0.94451   0.28471   0.15151
C          C       0.97225   0.97157   0.28327  -0.16410
C          C       0.98974   0.02936   0.23612  -0.15513
C          C       0.95533   0.22705   0.20956   0.15390
C          C       0.96073   0.28150   0.31175  -0.18414
C          C       0.03810   0.38331   0.37266  -0.15579
C          C       0.10884   0.43402   0.33245   0.13760
C          C       0.10539   0.38007   0.23090  -0.17125
C          C       0.03177   0.27762   0.17082  -0.17177
C          C       0.14896   0.71909   0.16756  -0.30438
C          C       0.22473   0.66973   0.08013  -0.13728
C          C       0.34267   0.74827   0.08039  -0.14538
C          C       0.40642   0.70238   0.98693  -0.14999
N          N       0.46490   0.31242   0.42715  -0.21297
N          N       0.43313   0.23983   0.26287   0.01479
N          N       0.63723   0.22907   0.55020  -0.22640
N          N       0.81044   0.14354   0.60644   0.02933
N          N       0.31500   0.41035   0.59320  -0.20935
N          N       0.19929   0.55154   0.66519   0.01136
N          N       0.12507   0.97736   0.85161  -0.14985
N          N       0.53150   0.88745   0.57199  -0.21688
N          N       0.56456   0.97762   0.73663   0.01174
N          N       0.35650   0.68116   0.44816  -0.22401
N          N       0.18652   0.53804   0.39325   0.02654
N          N       0.67795   0.81857   0.40476  -0.20751
N          N       0.79554   0.88725   0.33349   0.01041
N          N       0.87446   0.12441   0.14696  -0.14940
O          O       0.62173   0.41538   0.71339  -0.51752
O          O       0.71971   0.51868   0.66248  -0.60101
O          O       0.37020   0.70406   0.28475  -0.51855
O          O       0.27065   0.85813   0.33665  -0.59922

