data_crystal

_audit_creation_method 'AiiDA-DDEC plugin'

_cell_length_a         9.92477
_cell_length_b        12.98170
_cell_length_c        18.73204

_cell_angle_alpha     97.50919
_cell_angle_beta     90.27775
_cell_angle_gamma     112.14008

_symmetry_space_group_name_Hall 'P 1'
_symmetry_space_group_name_H-M  'P 1'

loop_
_symmetry_equiv_pos_as_xyz
 'x,y,z'

loop_
_atom_site_label
_atom_site_type_symbol
_atom_site_fract_x
_atom_site_fract_y
_atom_site_fract_z
_atom_site_charge
Cu         Cu      0.00198   0.00056  -0.00024   0.13345
Cu         Cu      0.99323   0.00142   0.50098   0.23292
Si         Si      0.43926   0.00354   0.25211   1.64150
Si         Si      0.57505   0.00426   0.74295   1.62978
H          H       0.42659   0.38396   0.59926   0.13654
H          H       0.28059   0.20961   0.52995   0.09610
H          H       0.95673   0.38290   0.10147   0.14010
H          H       0.92696   0.20739   0.03377   0.12403
H          H       0.31566   0.47993   0.40185   0.09905
H          H       0.66760   0.59904   0.04164   0.12706
H          H       0.86501   0.19444   0.46503   0.12781
H          H       0.06766   0.41133   0.46202   0.13086
H          H       0.92615   0.59915   0.54903   0.13583
H          H       0.08333   0.79137   0.97325   0.10143
H          H       0.69370   0.81964   0.04388   0.12339
H          H       0.04329   0.61413   0.90166   0.13809
H          H       0.12586   0.81426   0.54337   0.13175
H          H       0.71542   0.78930   0.46255   0.11840
H          H       0.33260   0.40191   0.95693   0.13352
H          H       0.56823   0.61921   0.40175   0.13827
H          H       0.15469   0.47191   0.90205   0.09787
H          H       0.84637   0.52528   0.10128   0.11077
H          H       0.31610   0.18402   0.95789   0.12827
H          H       0.67931   0.52375   0.59928   0.10375
W          W       0.70826   0.04487   0.12967   2.41365
W          W       0.27346   0.80470   0.70576   1.82866
W          W       0.31833   0.75210   0.33954   1.55749
W          W       0.13860   0.94018   0.37816   1.44252
W          W       0.66487   0.95149   0.36884   2.43043
W          W       0.29093   0.95732   0.86307   2.42339
W          W       0.18122   0.03636   0.11363   1.65023
W          W       0.73395   0.81379   0.71966   2.00345
W          W       0.78451   0.21744   0.29358   1.67994
W          W       0.54843   0.22682   0.16186   1.75102
W          W       0.84385   0.01658   0.61191   1.78326
W          W       0.42193   0.21367   0.77731   1.56615
W          W       0.82409   0.98193   0.88977   1.66770
W          W       0.56667   0.78265   0.20904   1.60698
W          W       0.65864   0.18003   0.89719   1.99075
W          W       0.27498   0.17756   0.28740   1.71903
W          W       0.48970   0.15610   0.41563   2.07455
W          W       0.33440   0.83123   0.08107   1.65228
W          W       0.46586   0.76754   0.84877   1.55552
W          W       0.93246   0.20409   0.78588   1.51261
W          W       0.69083   0.22236   0.65638   1.71902
W          W       0.09544   0.82908   0.22565   1.66034
W          W       0.46981   0.81535   0.59367   1.41309
W          W       0.34865   0.04655   0.61101   2.40705
C          C       0.77126   0.78133   0.02973  -0.02211
C          C       0.60045   0.51259   0.55553  -0.15029
C          C       0.19372   0.23339   0.51303   0.13054
C          C       0.06422   0.42064   0.00221   0.16029
C          C       0.03625   0.23024   0.01586   0.11812
C          C       0.80140   0.76726   0.48277   0.11925
C          C       0.08037   0.33674   0.47529  -0.14340
C          C       0.02616   0.56429   0.94563  -0.16374
C          C       0.53644   0.56873   0.44541  -0.15920
C          C       0.91072   0.51163   0.05685  -0.14178
C          C       0.45806   0.43528   0.55601  -0.14655
C          C       0.24668   0.32887   0.97203  -0.12801
C          C       0.63902   0.57933   0.50037   0.15933
C          C       0.75736   0.67207   0.02918  -0.14038
C          C       0.97451   0.43281   0.05747  -0.15521
C          C       0.93716   0.57714   0.00099   0.16790
C          C       0.23747   0.22101   0.97297  -0.01149
C          C       0.97310   0.77009   0.98975   0.12453
C          C       0.39410   0.49147   0.44592  -0.14401
C          C       0.35546   0.42499   0.50125   0.17637
C          C       0.01068   0.77754   0.52817   0.00976
C          C       0.91259   0.67094   0.53156  -0.12590
C          C       0.98172   0.22921   0.47649  -0.02741
C          C       0.09032   0.48589   0.94634  -0.14597
N          N       0.10510   0.16041   0.00000  -0.24416
N          N       0.77989   0.66539   0.50233   0.03234
N          N       0.88601   0.66590   0.00333   0.03268
N          N       0.93953   0.83692   0.49795  -0.26297
N          N       0.21458   0.33848   0.49919   0.03156
N          N       0.05479   0.16542   0.49923  -0.23726
N          N       0.90677   0.84141   0.00553  -0.21867
N          N       0.11859   0.33356  -0.00021   0.03534
O          O       0.40865   0.09382   0.31321  -0.89419
O          O       0.56209   0.08831   0.20705  -0.94939
O          O       0.67912   0.23863   0.37092  -0.84741
O          O       0.42649   0.69829   0.26547  -0.73869
O          O       0.13554   0.06429   0.33445  -0.77194
O          O       0.50696   0.16219   0.57726  -0.95397
O          O       0.30553   0.08800   0.81799  -0.80101
O          O       0.77895   0.13417   0.60022  -0.76459
O          O       0.24816   0.92092   0.66606  -0.83906
O          O       0.05361   0.92301   0.16278  -0.72575
O          O       0.57201   0.04803   0.41915  -0.83091
O          O       0.49239   0.92006   0.28759  -0.99476
O          O       0.67301   0.93708   0.71342  -0.95924
O          O       0.31500   0.14433   0.68533  -0.83140
O          O       0.29545   0.93396   0.20005  -0.94706
O          O       0.84580   0.88322   0.80744  -0.75818
O          O       0.77266   0.08022   0.32615  -0.81569
O          O       0.67259   0.91530   0.56819  -0.66606
O          O       0.66123   0.17295   0.09922  -0.85617
O          O       0.16299   0.75109   0.11285  -0.70427
O          O       0.41227   0.92546   0.56483  -0.76610
O          O       0.83297   0.03747   0.06788  -0.71760
O          O       0.69376   0.84684   0.29952  -0.79747
O          O       0.16643   0.96147   0.92549  -0.70821
O          O       0.83786   0.14827   0.20341  -0.80791
O          O       0.98400   0.83299   0.30084  -0.67758
O          O       0.86656   0.89677   0.65499  -0.79134
O          O       0.36592   0.15746   0.10905  -0.77217
O          O       0.20065   0.82278   0.39250  -0.74499
O          O       0.16700   0.14522   0.20366  -0.72502
O          O       0.19979   0.02540   0.55524  -0.70531
O          O       0.67685   0.09145   0.80817  -0.93105
O          O       0.85066   0.28146   0.71965  -0.76372
O          O       0.18503   0.73855   0.26153  -0.77073
O          O       0.27059   0.72053   0.61724  -0.75395
O          O       0.57845   0.28433   0.72277  -0.77716
O          O       0.47547   0.06415   0.91044  -0.85079
O          O       0.42707   0.92713   0.77473  -0.97977
O          O       0.52420   0.94865   0.07979  -0.81468
O          O       0.55488   0.26234   0.86602  -0.85011
O          O       0.40189   0.25006   0.39405  -0.80270
O          O       0.95293   0.10168   0.84350  -0.71640
O          O       0.75363   0.08361   0.93423  -0.76382
O          O       0.49029   0.82268   0.39705  -0.81254
O          O       0.84713   0.26621   0.86498  -0.78155
O          O       0.68841   0.91806   0.17494  -0.80565
O          O       0.64552   0.86143   0.90158  -0.75098
O          O       0.43967   0.75985   0.12940  -0.81607
O          O       0.25296   0.94193   0.06194  -0.70654
O          O       0.44585   0.26068   0.23998  -0.78507
O          O       0.57375   0.74764   0.64008  -0.79972
O          O       0.35378   0.84162   0.89461  -0.86752
O          O       0.31908   0.71649   0.76605  -0.76229
O          O       0.58234   0.73276   0.77914  -0.80568
O          O       0.30487   0.04106   0.42919  -0.75440
O          O       0.72264   0.29513   0.23548  -0.77904
O          O       0.16847   0.84930   0.79062  -0.80606
O          O       0.94798   0.11724   0.69733  -0.74169
O          O       0.79161   0.96308   0.43599  -0.73690
O          O       0.54210   0.07351   0.68347  -0.96914

