data_crystal

_audit_creation_method 'AiiDA-DDEC plugin'

_cell_length_a        12.57882
_cell_length_b        13.05167
_cell_length_c        15.26554

_cell_angle_alpha     125.12195
_cell_angle_beta     121.71011
_cell_angle_gamma     77.66392

_symmetry_space_group_name_Hall 'P 1'
_symmetry_space_group_name_H-M  'P 1'

loop_
_symmetry_equiv_pos_as_xyz
 'x,y,z'

loop_
_atom_site_label
_atom_site_type_symbol
_atom_site_fract_x
_atom_site_fract_y
_atom_site_fract_z
_atom_site_charge
Cu         Cu      0.01862   0.85500   0.80424   0.31252
Cu         Cu      0.98825   0.15052   0.20282   0.31464
Cu         Cu      0.13891   0.43853   0.53913   0.31086
Cu         Cu      0.86585   0.56836   0.46591   0.31213
H          H       0.94627   0.63286   0.76893   0.08745
H          H       0.75505   0.52894   0.70658   0.11593
H          H       0.57922   0.86325   0.73624   0.11493
H          H       0.77994   0.95596   0.80523   0.08684
H          H       0.36536   0.33932   0.51676   0.08362
H          H       0.56916   0.43007   0.58808   0.11331
H          H       0.44193   0.79860   0.73688   0.11292
H          H       0.24450   0.69135   0.66163   0.08068
H          H       0.11732   0.82955   0.11918   0.07169
H          H       0.99573   0.70512   0.12061   0.11123
H          H       0.06903   0.36831   0.84818   0.10712
H          H       0.18623   0.50765   0.85747   0.08631
H          H       0.82971   0.13603   0.27856   0.08175
H          H       0.78565   0.00122   0.32099   0.11101
H          H       0.15219   0.87596   0.37996   0.10762
H          H       0.17938   0.01719   0.33403   0.07839
H          H       0.71717   0.73832   0.38597   0.08238
H          H       0.75004   0.88109   0.34490   0.10995
H          H       0.11366   0.74902   0.40114   0.10831
H          H       0.06403   0.61125   0.43969   0.08054
H          H       0.83755   0.89161   0.02301   0.08607
H          H       0.63184   0.82998   0.97142   0.11464
H          H       0.54108   0.20506   0.05553   0.11576
H          H       0.74960   0.24837   0.09876   0.08991
H          H       0.06085   0.37427   0.23960   0.09080
H          H       0.25238   0.47658   0.30088   0.11662
H          H       0.42563   0.14014   0.26798   0.11383
H          H       0.22433   0.04899   0.19985   0.08696
H          H       0.63891   0.66504   0.48657   0.08367
H          H       0.43615   0.57397   0.41640   0.11307
H          H       0.56588   0.20618   0.27115   0.11157
H          H       0.76146   0.31382   0.34381   0.07912
H          H       0.93888   0.16772   0.95236   0.07680
H          H       0.06647   0.29334   0.95625   0.11917
H          H       0.80803   0.57160   0.00259   0.12125
H          H       0.69070   0.43313   0.99499   0.08542
H          H       0.16792   0.86594   0.71802   0.08182
H          H       0.21052  -0.00087   0.67228   0.11145
H          H       0.86350   0.15458   0.65358   0.10995
H          H       0.83620   0.01384   0.69974   0.07775
H          H       0.30024   0.29709   0.65486   0.08202
H          H       0.26743   0.15799   0.70052   0.11218
H          H       0.88055   0.23974   0.57876   0.10978
H          H       0.93215   0.37881   0.54269   0.07877
H          H       0.17317   0.10848   0.98328   0.08349
H          H       0.38002   0.16955   0.03741   0.11555
H          H       0.46859   0.79439   0.95382   0.11458
H          H       0.25738   0.75101   0.90635   0.09124
C          C       0.86271   0.68046   0.76085   0.07046
C          C       0.75385   0.62244   0.72400  -0.18318
C          C       0.64428   0.68368   0.71027   0.07100
C          C       0.65732   0.80741   0.74175  -0.18923
C          C       0.76980   0.85997   0.77903   0.06377
C          C       0.38697   0.44096   0.56751   0.05807
C          C       0.50134   0.49303   0.60808  -0.18743
C          C       0.52678   0.62488   0.66896   0.06616
C          C       0.42971   0.69617   0.68706  -0.18962
C          C       0.31868   0.63767   0.64568   0.05353
C          C       0.10506   0.72667   0.05981   0.08075
C          C       0.03556   0.65660   0.05993  -0.19493
C          C       0.02133   0.52402   0.98401   0.09352
C          C       0.07820   0.47020   0.91099  -0.18863
C          C       0.14456   0.54867   0.91630   0.08805
C          C       0.89790   0.07508   0.29929   0.07568
C          C       0.87387  -0.00194   0.32302  -0.19185
C          C       0.96218   0.91817   0.34978   0.06683
C          C       0.07600   0.92941   0.35560  -0.19695
C          C       0.09218   0.00863   0.32960   0.05269
C          C       0.80394   0.74360   0.38836   0.06211
C          C       0.82348   0.82381   0.36526  -0.19101
C          C       0.93692   0.83162   0.36939   0.07225
C          C       0.02382   0.75070   0.39601  -0.19426
C          C       0.99727   0.67289   0.41807   0.07832
C          C       0.76923   0.95882   0.02962   0.07283
C          C       0.65322   0.92544   0.00219  -0.20040
C          C       0.56555   0.01378   0.01485   0.06511
C          C       0.60299   0.13190   0.04791  -0.19799
C          C       0.72038   0.15790   0.07289   0.07311
C          C       0.14395   0.32583   0.24671   0.06193
C          C       0.25293   0.38296   0.28310  -0.18138
C          C       0.36209   0.32090   0.29594   0.07009
C          C       0.34815   0.19679   0.26358  -0.19013
C          C       0.23553   0.14513   0.22676   0.05893
C          C       0.61804   0.56348   0.43671   0.05859
C          C       0.50425   0.51116   0.39690  -0.18822
C          C       0.47942   0.37939   0.33704   0.06571
C          C       0.57704   0.30848   0.31965  -0.19222
C          C       0.68732   0.36732   0.35989   0.05424
C          C       0.91156   0.25740   0.96213   0.08338
C          C       0.98346   0.32820   0.96475  -0.18979
C          C       0.94871   0.44481   0.98031   0.09013
C          C       0.84103   0.48302   0.99193  -0.18931
C          C       0.77482   0.40496   0.98699   0.07877
C          C       0.10379   0.93277   0.70492   0.07476
C          C       0.12752   0.00912   0.68037  -0.19171
C          C       0.04337   0.09549   0.66211   0.06682
C          C       0.93442   0.09257   0.66685  -0.20276
C          C       0.91862   0.01385   0.69367   0.05858
C          C       0.20822   0.28070   0.63827   0.05445
C          C       0.18846   0.20181   0.66268  -0.19472
C          C       0.06841   0.18067   0.64104   0.07001
C          C       0.97569   0.24906   0.59816  -0.19098
C          C       0.00307   0.32678   0.57656   0.07799
C          C       0.24101   0.04085   0.97681   0.06800
C          C       0.35792   0.07403   0.00597  -0.19710
C          C       0.44531   0.98538   0.99395   0.06372
C          C       0.40665   0.86745   0.96038  -0.19765
C          C       0.28795   0.84147   0.93310   0.07239
N          N       0.87321   0.79850   0.78752  -0.23323
N          N       0.29365   0.51034   0.58427  -0.22292
N          N       0.15974   0.67564   0.98992  -0.27143
N          N       0.00357   0.07941   0.29719  -0.24264
N          N       0.88906   0.66827   0.41596  -0.22004
N          N       0.80785   0.07553   0.07000  -0.25691
N          N       0.13271   0.20755   0.21944  -0.23910
N          N       0.71159   0.49451   0.42004  -0.22326
N          N       0.80795   0.29315   0.97229  -0.27230
N          N       0.00260   0.93542   0.71622  -0.24360
N          N       0.11709   0.34244   0.59332  -0.22465
N          N       0.20077   0.92416   0.93493  -0.25237
Cl         Cl      0.05209   0.63743   0.65776  -0.46626
Cl         Cl      0.95205   0.37029   0.34767  -0.46793

