data_crystal

_audit_creation_method 'AiiDA-DDEC plugin'

_cell_length_a         8.23719
_cell_length_b        14.90047
_cell_length_c        14.98914

_cell_angle_alpha     89.99324
_cell_angle_beta     97.30564
_cell_angle_gamma     89.94270

_symmetry_space_group_name_Hall 'P 1'
_symmetry_space_group_name_H-M  'P 1'

loop_
_symmetry_equiv_pos_as_xyz
 'x,y,z'

loop_
_atom_site_label
_atom_site_type_symbol
_atom_site_fract_x
_atom_site_fract_y
_atom_site_fract_z
_atom_site_charge
Zn         Zn      0.98775   0.72983   0.74403   0.91550
Zn         Zn      0.51115   0.22977   0.25334   0.91587
Zn         Zn      0.01224   0.27017   0.25598   0.91549
Zn         Zn      0.48884   0.77024   0.74667   0.91578
H          H       0.10572   0.87587   0.63264   0.10309
H          H       0.00385   0.12922   0.75276   0.11671
H          H       0.87153   0.87467   0.86025   0.10403
H          H       0.29947   0.95095   0.58340   0.12492
H          H       0.39438   0.02710   0.45167   0.11306
H          H       0.08167   0.25123   0.48528   0.11426
H          H       0.97244   0.17331   0.61139   0.11090
H          H       0.69072   0.95364   0.91605   0.12265
H          H       0.60619   0.02760   0.05156   0.11542
H          H       0.93834   0.24419   0.02396   0.11303
H          H       0.03693   0.16759   0.89416   0.10948
H          H       0.39434   0.37562   0.36619   0.10275
H          H       0.49639   0.62930   0.24666   0.11664
H          H       0.62844   0.37486   0.13872   0.10513
H          H       0.20150   0.45100   0.41629   0.12476
H          H       0.10691   0.52683   0.54802   0.11441
H          H       0.42014   0.75064   0.51476   0.11445
H          H       0.52862   0.67288   0.38843   0.11124
H          H       0.81006   0.45354   0.08363   0.12274
H          H       0.89489   0.52745   0.94805   0.11381
H          H       0.56379   0.74476   0.97573   0.11262
H          H       0.46442   0.66827   0.10529   0.11230
H          H       0.89427   0.12414   0.36736   0.10323
H          H      -0.00386   0.87078   0.24725   0.11662
H          H       0.12846   0.12533   0.13976   0.10394
H          H       0.70053   0.04905   0.41660   0.12507
H          H       0.60561   0.97291   0.54833   0.11321
H          H       0.91832   0.74877   0.51473   0.11409
H          H       0.02755   0.82669   0.38861   0.11072
H          H       0.30928   0.04636   0.08395   0.12269
H          H       0.39380   0.97240   0.94844   0.11533
H          H       0.06166   0.75581   0.97605   0.11295
H          H       0.96306   0.83242   0.10584   0.10966
H          H       0.60565   0.62438   0.63381   0.10270
H          H       0.50360   0.37071   0.75334   0.11655
H          H       0.37155   0.62514   0.86128   0.10522
H          H       0.79849   0.54900   0.58372   0.12483
H          H       0.89309   0.47317   0.45198   0.11434
H          H       0.57985   0.24937   0.48524   0.11444
H          H       0.47137   0.32712   0.61157   0.11137
H          H       0.18993   0.54646   0.91637   0.12289
H          H       0.10510   0.47255   0.05195   0.11397
H          H       0.43620   0.25524   0.02427   0.11254
H          H       0.53558   0.33173   0.89471   0.11215
C          C       0.05597   0.91601   0.68312   0.04400
C          C       0.06205   0.00988   0.68148   0.03347
C          C      -0.00092   0.05622   0.75089  -0.13270
C          C       0.93059   0.00925   0.81805   0.03465
C          C       0.92599   0.91542   0.81190   0.04444
C          C       0.12833   0.05650   0.60702   0.07425
C          C       0.24860   0.01596   0.56131  -0.13322
C          C       0.30468   0.05901   0.48857  -0.08839
C          C       0.24504   0.14407   0.46104  -0.05038
C          C       0.12758   0.18545   0.50747  -0.09330
C          C       0.06870   0.14184   0.57884  -0.13938
C          C       0.29941   0.19089   0.38181   0.56313
C          C       0.87080   0.05498   0.89509   0.07184
C          C       0.74838   0.01628   0.94034  -0.13321
C          C       0.69814   0.05818   0.01535  -0.09308
C          C       0.76602   0.14066   0.04572  -0.04668
C          C       0.88601   0.18028  -0.00005  -0.09086
C          C       0.93908   0.13754   0.92637  -0.13874
C          C       0.71493   0.18690   0.12615   0.55893
C          C       0.44431   0.41591   0.31592   0.04171
C          C       0.43821   0.50980   0.31775   0.03416
C          C       0.50098   0.55629   0.24837  -0.13137
C          C       0.56970   0.50942   0.18120   0.03407
C          C       0.57419   0.41560   0.18714   0.03923
C          C       0.37262   0.55628   0.39255   0.07337
C          C       0.25257   0.51585   0.43836  -0.13300
C          C       0.19655   0.55881   0.51121  -0.09033
C          C       0.25638   0.64373   0.53889  -0.04938
C          C       0.37384   0.68498   0.49247  -0.09274
C          C       0.43248   0.64143   0.42097  -0.14159
C          C       0.20154   0.69062   0.61794   0.56469
C          C       0.63015   0.55524   0.10445   0.07374
C          C       0.75273   0.51633   0.05932  -0.13260
C          C       0.80322   0.55821   0.98441  -0.09160
C          C       0.73555   0.64077   0.95403  -0.04813
C          C       0.61576   0.68074  -0.00018  -0.08908
C          C       0.56237   0.63801   0.07325  -0.14239
C          C       0.78620   0.68679   0.87342   0.56172
C          C       0.94402   0.08399   0.31689   0.04401
C          C       0.93794   0.99012   0.31852   0.03349
C          C       0.00091   0.94378   0.24911  -0.13272
C          C       0.06941   0.99075   0.18195   0.03475
C          C       0.07400   0.08458   0.18810   0.04416
C          C       0.87166   0.94350   0.39298   0.07454
C          C       0.75139   0.98405   0.43869  -0.13342
C          C       0.69532   0.94099   0.51144  -0.08824
C          C       0.75495   0.85593   0.53896  -0.05032
C          C       0.87241   0.81456   0.49253  -0.09328
C          C       0.93129   0.85817   0.42116  -0.13954
C          C       0.70058   0.80911   0.61819   0.56305
C          C       0.12919   0.94503   0.10491   0.07177
C          C       0.25162   0.98372   0.05966  -0.13318
C          C       0.30186   0.94182   0.98465  -0.09309
C          C       0.23397   0.85934   0.95428  -0.04694
C          C       0.11398   0.81972   0.00005  -0.09061
C          C       0.06092   0.86247   0.07363  -0.13892
C          C       0.28506   0.81310   0.87385   0.55925
C          C       0.55569   0.58409   0.68409   0.04153
C          C       0.56178   0.49020   0.68225   0.03428
C          C       0.49902   0.44372   0.75163  -0.13134
C          C       0.43029   0.49058   0.81881   0.03406
C          C       0.42580   0.58440   0.81286   0.03932
C          C       0.62737   0.44372   0.60745   0.07331
C          C       0.74742   0.48415   0.56164  -0.13294
C          C       0.80345   0.44119   0.48879  -0.09055
C          C       0.74361   0.35627   0.46111  -0.04924
C          C       0.62615   0.31502   0.50753  -0.09283
C          C       0.56752   0.35857   0.57903  -0.14158
C          C       0.79846   0.30938   0.38206   0.56461
C          C       0.36984   0.44476   0.89555   0.07376
C          C       0.24726   0.48367   0.94068  -0.13271
C          C       0.19678   0.44179   0.01559  -0.09137
C          C       0.26444   0.35923   0.04597  -0.04798
C          C       0.38423   0.31926   0.00018  -0.08929
C          C       0.43763   0.36200   0.92675  -0.14247
C          C       0.21379   0.31321   0.12659   0.56147
N          N       0.98886   0.86991   0.74654  -0.22515
N          N       0.51150   0.36994   0.25242  -0.22005
N          N       0.01114   0.13009   0.25346  -0.22492
N          N       0.48849   0.63006   0.74759  -0.21994
O          O       0.60036   0.15012   0.16461  -0.52610
O          O       0.78459   0.25991   0.15181  -0.58665
O          O       0.41419   0.15444   0.34382  -0.52180
O          O       0.23023   0.26450   0.35664  -0.58795
O          O       0.90202   0.65080   0.83538  -0.52463
O          O       0.71463   0.75952   0.84760  -0.58913
O          O       0.08646   0.65404   0.65568  -0.52573
O          O       0.26993   0.76423   0.64322  -0.58784
O          O       0.39963   0.84988   0.83540  -0.52619
O          O       0.21540   0.74009   0.84819  -0.58687
O          O       0.58581   0.84557   0.65618  -0.52155
O          O       0.76976   0.73550   0.64337  -0.58804
O          O       0.09797   0.34920   0.16462  -0.52427
O          O       0.28536   0.24049   0.15240  -0.58919
O          O       0.91353   0.34596   0.34432  -0.52575
O          O       0.73006   0.23577   0.35678  -0.58793

