data_crystal

_audit_creation_method 'AiiDA-DDEC plugin'

_cell_length_a        12.16719
_cell_length_b        12.12530
_cell_length_c        12.47332

_cell_angle_alpha     102.56907
_cell_angle_beta     102.77011
_cell_angle_gamma     103.37600

_symmetry_space_group_name_Hall 'P 1'
_symmetry_space_group_name_H-M  'P 1'

loop_
_symmetry_equiv_pos_as_xyz
 'x,y,z'

loop_
_atom_site_label
_atom_site_type_symbol
_atom_site_fract_x
_atom_site_fract_y
_atom_site_fract_z
_atom_site_charge
Ba         Ba      0.79935   0.19961   0.25057   1.57953
Ba         Ba      0.20065   0.80040   0.74943   1.57956
Zn         Zn      0.57800   0.17741   0.95568   0.95794
Zn         Zn      0.82368   0.42342   0.54558   0.95479
Zn         Zn      0.42200   0.82260   0.04432   0.95791
Zn         Zn      0.17633   0.57658   0.45442   0.95482
H          H       0.90597   0.95247   0.00714   0.11354
H          H       0.97514   0.80023   0.89323   0.11509
H          H       0.65330   0.70183   0.62024   0.12715
H          H       0.58792   0.85913   0.73005   0.10953
H          H       0.82740   0.39613   0.82775   0.12493
H          H       0.98735   0.47578   0.18992   0.10676
H          H       0.49905   0.09734   0.11446   0.39219
H          H       0.53158   0.23691   0.15213   0.42372
H          H       0.04718   0.09386   0.49398   0.11352
H          H       0.20094   0.02502   0.60578   0.11483
H          H       0.30002   0.34657   0.87969   0.12728
H          H       0.14153   0.41177   0.77183   0.11062
H          H       0.60428   0.17242   0.67244   0.12565
H          H       0.52363   0.01345   0.31018   0.10740
H          H       0.90262   0.50047   0.38490   0.39185
H          H       0.76352   0.46952   0.34920   0.42301
H          H       0.09403   0.04754   0.99286   0.11323
H          H       0.02487   0.19978   0.10678   0.11494
H          H       0.34670   0.29818   0.37976   0.12722
H          H       0.41209   0.14087   0.26996   0.10961
H          H       0.17260   0.60387   0.17225   0.12510
H          H       0.01265   0.52422   0.81009   0.10675
H          H       0.50096   0.90266   0.88555   0.39238
H          H       0.46843   0.76310   0.84787   0.42369
H          H       0.95283   0.90614   0.50602   0.11367
H          H       0.79907   0.97498   0.39422   0.11488
H          H       0.69998   0.65343   0.12031   0.12722
H          H       0.85847   0.58824   0.22818   0.11057
H          H       0.39572   0.82759   0.32756   0.12553
H          H       0.47637   0.98655   0.68982   0.10743
H          H       0.09739   0.49954   0.61510   0.39177
H          H       0.23649   0.53048   0.65081   0.42326
C          C       0.70986   0.01427   0.94264   0.59378
C          C       0.74344   0.91613   0.87596  -0.04859
C          C       0.85213   0.89828   0.92184  -0.08682
C          C       0.89061   0.81364   0.85811  -0.10954
C          C       0.81936   0.74361   0.74852  -0.02198
C          C       0.70861   0.75790   0.70440  -0.09226
C          C       0.67153   0.84495   0.76688  -0.10815
C          C       0.86150   0.65299   0.68012   0.59104
C          C       0.78737   0.35378   0.02371   0.58714
C          C       0.89646   0.42945   0.01044  -0.03182
C          C       0.90311   0.44185   0.90253  -0.09384
C          C       0.99381   0.48765   0.10742  -0.10535
C          C       0.98556   0.29012   0.55903   0.59501
C          C       0.08395   0.25641   0.62530  -0.04783
C          C       0.10202   0.14782   0.57900  -0.08795
C          C       0.18760   0.10945   0.64183  -0.10923
C          C       0.25835   0.18072   0.75123  -0.02340
C          C       0.24349   0.29125   0.79577  -0.09320
C          C       0.15566   0.32827   0.73421  -0.10755
C          C       0.34974   0.13895   0.81946   0.59053
C          C       0.64590   0.21383   0.47668   0.58798
C          C       0.57031   0.10420   0.48975  -0.03364
C          C       0.55830   0.09678   0.59757  -0.09559
C          C       0.51195   0.00683   0.39267  -0.10412
C          C       0.29015   0.98574   0.05736   0.59373
C          C       0.25657   0.08387   0.12404  -0.04862
C          C       0.14788   0.10172   0.07816  -0.08662
C          C       0.10940   0.18637   0.14189  -0.10958
C          C       0.18064   0.25640   0.25149  -0.02198
C          C       0.29140   0.24210   0.29560  -0.09211
C          C       0.32848   0.15506   0.23312  -0.10802
C          C       0.13851   0.34701   0.31989   0.59113
C          C       0.21264   0.64623   0.97629   0.58691
C          C       0.10355   0.57056   0.98956  -0.03169
C          C       0.09689   0.55815   0.09748  -0.09375
C          C       0.00619   0.51235   0.89259  -0.10524
C          C       0.01445   0.70989   0.44098   0.59476
C          C       0.91606   0.74359   0.37470  -0.04757
C          C       0.89798   0.85218   0.42100  -0.08802
C          C       0.81241   0.89055   0.35817  -0.10924
C          C       0.74165   0.81929   0.24878  -0.02311
C          C       0.75652   0.70875   0.20423  -0.09350
C          C       0.84435   0.67174   0.26580  -0.10768
C          C       0.65027   0.86106   0.18054   0.59060
C          C       0.35411   0.78618   0.52332   0.58825
C          C       0.42970   0.89581   0.51025  -0.03359
C          C       0.44170   0.90322   0.40243  -0.09571
C          C       0.48806   0.99318   0.60733  -0.10422
O          O       0.78338   0.08940   0.02899  -0.59606
O          O       0.60100   0.01804   0.90441  -0.57281
O          O       0.97016   0.66642   0.69543  -0.62635
O          O       0.77895   0.56272   0.60833  -0.56450
O          O       0.70750   0.28864   0.93025  -0.55021
O          O       0.77747   0.35555   0.12300  -0.64486
O          O       0.55983   0.17297   0.11755  -0.77785
O          O       0.91039   0.21662   0.47266  -0.59575
O          O       0.98198   0.39928   0.59762  -0.57345
O          O       0.33834   0.03010   0.80228  -0.62633
O          O       0.43822   0.22171   0.89344  -0.56385
O          O       0.71068   0.29404   0.57019  -0.55015
O          O       0.64441   0.22329   0.37720  -0.64553
O          O       0.82713   0.43986   0.38199  -0.77632
O          O       0.21663   0.91060   0.97101  -0.59635
O          O       0.39900   0.98197   0.09559  -0.57254
O          O       0.02985   0.33359   0.30457  -0.62665
O          O       0.22106   0.43729   0.39167  -0.56425
O          O       0.29251   0.71137   0.06975  -0.55000
O          O       0.22254   0.64446   0.87701  -0.64489
O          O       0.44018   0.82703   0.88245  -0.77799
O          O       0.08961   0.78338   0.52734  -0.59541
O          O       0.01803   0.60073   0.40239  -0.57356
O          O       0.66167   0.96991   0.19773  -0.62627
O          O       0.56179   0.77829   0.10656  -0.56411
O          O       0.28933   0.70596   0.42981  -0.55045
O          O       0.35559   0.77671   0.62280  -0.64561
O          O       0.17288   0.56014   0.61801  -0.77650

