data_crystal

_audit_creation_method 'AiiDA-DDEC plugin'

_cell_length_a         8.46616
_cell_length_b        15.10963
_cell_length_c        15.10963

_cell_angle_alpha     89.99641
_cell_angle_beta     90.00000
_cell_angle_gamma     90.00000

_symmetry_space_group_name_Hall 'P 1'
_symmetry_space_group_name_H-M  'P 1'

loop_
_symmetry_equiv_pos_as_xyz
 'x,y,z'

loop_
_atom_site_label
_atom_site_type_symbol
_atom_site_fract_x
_atom_site_fract_y
_atom_site_fract_z
_atom_site_charge
Ni         Ni      0.00000   0.25320   0.25320   0.72904
Ni         Ni      0.50000   0.74680   0.74680   0.72903
Ni         Ni      0.25000   0.24720   0.75280   0.73193
Ni         Ni      0.75000   0.75280   0.24721   0.73179
H          H       0.19510   0.27863   0.07658   0.10827
H          H       0.08855   0.26729   0.92345   0.30669
H          H       0.76362   0.26124   0.84744   0.12792
H          H       0.42266   0.21986   0.05522   0.10825
H          H       0.63416   0.22901   0.17100   0.13357
H          H       0.69511   0.72137   0.92343   0.10828
H          H       0.58855   0.73271   0.07655   0.30686
H          H       0.26362   0.73876   0.15256   0.12798
H          H       0.92266   0.78014   0.94478   0.10823
H          H       0.13416   0.77099   0.82900   0.13353
H          H       0.44579   0.42398   0.77806   0.10928
H          H       0.33837   0.57708   0.76753   0.30658
H          H       0.01391   0.65277   0.76123   0.12770
H          H       0.67310   0.44481   0.72017   0.10816
H          H       0.88494   0.32915   0.72940   0.13297
H          H       0.94579   0.57602   0.22194   0.10926
H          H       0.83837   0.42292   0.23247   0.30659
H          H       0.51391   0.34723   0.23877   0.12770
H          H       0.17310   0.55519   0.27983   0.10816
H          H       0.38494   0.67085   0.27060   0.13295
H          H       0.05421   0.22194   0.57602   0.10928
H          H       0.16163   0.23247   0.42292   0.30658
H          H       0.48609   0.23877   0.34723   0.12768
H          H       0.82690   0.27983   0.55519   0.10821
H          H       0.61507   0.27060   0.67085   0.13299
H          H       0.55421   0.77806   0.42398   0.10925
H          H       0.66164   0.76753   0.57708   0.30666
H          H       0.98609   0.76123   0.65277   0.12771
H          H       0.32690   0.72017   0.44481   0.10816
H          H       0.11507   0.72940   0.32915   0.13293
H          H       0.80490   0.07658   0.27863   0.10830
H          H       0.91145   0.92345   0.26729   0.30668
H          H       0.23638   0.84744   0.26124   0.12793
H          H       0.57734   0.05522   0.21986   0.10824
H          H       0.36584   0.17100   0.22901   0.13357
H          H       0.30490   0.92342   0.72137   0.10825
H          H       0.41145   0.07655   0.73271   0.30669
H          H       0.73638   0.15256   0.73876   0.12793
H          H       0.07734   0.94478   0.78014   0.10826
H          H       0.86584   0.82900   0.77099   0.13354
C          C       0.45069   0.24234   0.87857   0.55513
C          C       0.57972   0.24184   0.94541  -0.04003
C          C       0.54445   0.23191   0.03651  -0.10597
C          C       0.66105   0.23601   0.10113  -0.16793
C          C       0.81725   0.25014   0.07354   0.14727
C          C       0.85252   0.25695   0.98186   0.13996
C          C       0.73593   0.25380   0.91709  -0.17472
C          C       0.07152   0.26952   0.06124   0.19609
C          C       0.95069   0.75766   0.12144   0.55509
C          C       0.07972   0.75816   0.05459  -0.04002
C          C       0.04445   0.76809   0.96349  -0.10597
C          C       0.16105   0.76399   0.89887  -0.16800
C          C       0.31725   0.74986   0.92646   0.14723
C          C       0.35252   0.74305   0.01814   0.14003
C          C       0.23593   0.74620   0.08291  -0.17468
C          C       0.57152   0.73048   0.93877   0.19595
C          C       0.70135   0.62166   0.74239   0.55501
C          C       0.83010   0.55471   0.74173  -0.04145
C          C       0.79492   0.46362   0.73185  -0.10632
C          C       0.91163   0.39907   0.73598  -0.16766
C          C       0.06776   0.42677   0.74997   0.14916
C          C       0.10286   0.51843   0.75691   0.14007
C          C       0.98623   0.58313   0.75373  -0.17284
C          C       0.32201   0.43916   0.76946   0.19354
C          C       0.20135   0.37834   0.25761   0.55522
C          C       0.33010   0.44529   0.25828  -0.04155
C          C       0.29492   0.53638   0.26815  -0.10624
C          C       0.41163   0.60093   0.26402  -0.16765
C          C       0.56776   0.57323   0.25003   0.14912
C          C       0.60286   0.48157   0.24309   0.14013
C          C       0.48623   0.41687   0.24627  -0.17284
C          C       0.82201   0.56084   0.23055   0.19356
C          C       0.79865   0.25761   0.37834   0.55515
C          C       0.66990   0.25827   0.44529  -0.04152
C          C       0.70508   0.26815   0.53638  -0.10629
C          C       0.58837   0.26402   0.60093  -0.16768
C          C       0.43224   0.25003   0.57324   0.14916
C          C       0.39714   0.24309   0.48157   0.14010
C          C       0.51377   0.24627   0.41687  -0.17287
C          C       0.17799   0.23054   0.56084   0.19349
C          C       0.29865   0.74239   0.62166   0.55506
C          C       0.16990   0.74173   0.55471  -0.04154
C          C       0.20508   0.73185   0.46363  -0.10629
C          C       0.08837   0.73598   0.39908  -0.16776
C          C       0.93224   0.74997   0.42677   0.14922
C          C       0.89714   0.75691   0.51843   0.14005
C          C       0.01377   0.75373   0.58313  -0.17266
C          C       0.67799   0.76946   0.43917   0.19349
C          C       0.54931   0.87857   0.24235   0.55510
C          C       0.42028   0.94541   0.24184  -0.04007
C          C       0.45556   0.03651   0.23191  -0.10596
C          C       0.33895   0.10113   0.23601  -0.16794
C          C       0.18275   0.07354   0.25014   0.14724
C          C       0.14748   0.98186   0.25695   0.13996
C          C       0.26407   0.91709   0.25380  -0.17470
C          C       0.92848   0.06124   0.26952   0.19595
C          C       0.04931   0.12143   0.75766   0.55510
C          C       0.92028   0.05459   0.75816  -0.04007
C          C       0.95556   0.96349   0.76810  -0.10592
C          C       0.83895   0.89887   0.76400  -0.16790
C          C       0.68275   0.92646   0.74986   0.14718
C          C       0.64748   0.01814   0.74305   0.14001
C          C       0.76407   0.08291   0.74620  -0.17475
C          C       0.42848   0.93876   0.73048   0.19595
N          N       0.95757   0.25907   0.12121  -0.35771
N          N       0.01509   0.26883   0.97729  -0.23912
N          N       0.45757   0.74093   0.87879  -0.35768
N          N       0.51509   0.73117   0.02272  -0.23919
N          N       0.20808   0.37917   0.75891  -0.35816
N          N       0.26532   0.52308   0.76896  -0.23898
N          N       0.70809   0.62083   0.24110  -0.35810
N          N       0.76532   0.47692   0.23105  -0.23904
N          N       0.29192   0.24109   0.62083  -0.35810
N          N       0.23468   0.23104   0.47692  -0.23901
N          N       0.79192   0.75891   0.37917  -0.35817
N          N       0.73468   0.76896   0.52308  -0.23897
N          N       0.04243   0.12121   0.25907  -0.35769
N          N       0.98492   0.97729   0.26884  -0.23903
N          N       0.54243   0.87879   0.74094  -0.35762
N          N       0.48491   0.02271   0.73117  -0.23905
O          O       0.30602   0.24098   0.90218  -0.55747
O          O       0.48607   0.24580   0.79548  -0.54617
O          O       0.80602   0.75902   0.09782  -0.55756
O          O       0.98608   0.75420   0.20452  -0.54599
O          O       0.55641   0.59832   0.74097  -0.55746
O          O       0.73770   0.70457   0.74600  -0.54411
O          O       0.05641   0.40168   0.25903  -0.55756
O          O       0.23770   0.29543   0.25400  -0.54419
O          O       0.94360   0.25903   0.40168  -0.55748
O          O       0.76230   0.25400   0.29543  -0.54421
O          O       0.44359   0.74097   0.59832  -0.55758
O          O       0.26230   0.74600   0.70457  -0.54401
O          O       0.69398   0.90218   0.24098  -0.55745
O          O       0.51393   0.79548   0.24580  -0.54610
O          O       0.19398   0.09782   0.75902  -0.55747
O          O       0.01392   0.20452   0.75420  -0.54612

