data_crystal

_audit_creation_method 'AiiDA-DDEC plugin'

_cell_length_a        11.44073
_cell_length_b        11.44758
_cell_length_c        16.78231

_cell_angle_alpha     81.88803
_cell_angle_beta     81.88496
_cell_angle_gamma     80.33667

_symmetry_space_group_name_Hall 'P 1'
_symmetry_space_group_name_H-M  'P 1'

loop_
_symmetry_equiv_pos_as_xyz
 'x,y,z'

loop_
_atom_site_label
_atom_site_type_symbol
_atom_site_fract_x
_atom_site_fract_y
_atom_site_fract_z
_atom_site_charge
Cd         Cd      0.78237   0.61326   0.48171   0.91587
Cd         Cd      0.59319   0.95485   0.13682   0.99149
Cd         Cd      0.96981   0.49041   0.88431   0.86654
Cd         Cd      0.38487   0.21834   0.01905   0.91894
Cd         Cd      0.04535   0.40533   0.36343   0.99347
Cd         Cd      0.50873   0.02930   0.61468   0.86844
Cd         Cd      0.22157   0.38029   0.51760   0.91806
Cd         Cd      0.40626   0.04205   0.86395   0.99662
Cd         Cd      0.02911   0.50898   0.11536   0.86607
Cd         Cd      0.61920   0.77804   0.98318   0.91446
Cd         Cd      0.95706   0.59244   0.63565   0.99813
Cd         Cd      0.49101   0.96987   0.38481   0.86856
Cd         Cd      0.81220   0.18814   0.24995   0.95151
Cd         Cd      0.18802   0.81175   0.74989   0.94801
H          H       0.54050   0.66852   0.58855   0.11998
H          H       0.41353   0.64636   0.53513   0.10941
H          H       0.60886   0.53464   0.36849   0.09269
H          H       0.45963   0.60113   0.40118   0.12267
H          H       0.33020   0.46028   0.91220   0.11885
H          H       0.35351   0.58721   0.96506   0.10797
H          H       0.46476   0.39241   0.13199   0.09317
H          H       0.39911   0.54172   0.09886   0.12262
H          H       0.47075   0.38655   0.39908   0.10581
H          H       0.58716   0.35408   0.46366   0.08632
H          H       0.38561   0.41291   0.64316   0.10619
H          H       0.54684   0.39731   0.59832   0.14064
H          H       0.61453   0.52840   0.10068   0.10559
H          H       0.64495   0.41224   0.03596   0.08611
H          H       0.58785   0.61420   0.85676   0.10619
H          H       0.60274   0.45313   0.90158   0.14053
C          C       0.78464   0.31293   0.91365   0.54695
C          C       0.81995   0.22572   0.06640  -0.02004
C          C       0.80292   0.66154   0.21190  -0.01086
C          C       0.83919   0.29628   0.99220   0.01146
C          C       0.50925   0.63537   0.53894  -0.03068
C          C       0.76846   0.69172   0.12781   0.56681
C          C       0.76352   0.70177   0.28765   0.00219
C          C       0.75330   0.12468   0.09318   0.55096
C          C       0.53925   0.54183   0.42042  -0.07729
C          C       0.67443   0.80006   0.31746   0.56972
C          C       0.68755   0.21302   0.58624   0.55109
C          C       0.77633   0.17728   0.43356  -0.01834
C          C       0.33788   0.19623   0.28885  -0.01252
C          C       0.70464   0.15896   0.50747   0.01121
C          C       0.36403   0.49151   0.96152  -0.02973
C          C       0.30908   0.22930   0.37338   0.56979
C          C       0.29773   0.23690   0.21311   0.00224
C          C       0.87853   0.24244   0.40714   0.54305
C          C       0.45786   0.46165   0.07985  -0.07891
C          C       0.20034   0.32704   0.18287   0.57180
C          C       0.21161   0.68802   0.08665   0.54821
C          C       0.17762   0.77482   0.93352  -0.02125
C          C       0.19363   0.33269   0.78894  -0.01070
C          C       0.15745   0.70478   0.00778   0.01104
C          C       0.50655   0.41521   0.44918  -0.05939
C          C       0.22686   0.30301   0.87356   0.56676
C          C       0.23116   0.29105   0.71338  -0.00352
C          C       0.24386   0.87602   0.90714   0.54271
C          C       0.45200   0.40951   0.58974  -0.03091
C          C       0.31973   0.19283   0.68313   0.56288
C          C       0.31125   0.78761   0.41337   0.54952
C          C       0.22238   0.82326   0.56617  -0.02387
C          C       0.66683   0.80725   0.71117  -0.01033
C          C       0.29365   0.84199   0.49218   0.01179
C          C       0.58480   0.49325   0.05072  -0.06057
C          C       0.69550   0.77391   0.62653   0.56869
C          C       0.70807   0.76853   0.78677  -0.00320
C          C       0.12046   0.75780   0.59276   0.55042
C          C       0.59075   0.54789   0.91018  -0.02982
C          C       0.80570   0.67871   0.81644   0.56460
N          N       0.83075   0.63086   0.34181  -0.20097
N          N       0.92303   0.36360   0.08309  -0.01960
N          N       0.90784   0.55211   0.30192  -0.03343
N          N       0.58601   0.58799   0.48464  -0.15982
N          N       0.87239   0.27062   0.12135  -0.23641
N          N       0.89253   0.56902   0.22404  -0.17251
N          N       0.90321   0.37954   0.00564  -0.18503
N          N       0.36766   0.16922   0.15877  -0.20172
N          N       0.63668   0.07699   0.41591  -0.02176
N          N       0.44565   0.09088   0.19845  -0.02841
N          N       0.41126   0.41477   0.01585  -0.15855
N          N       0.73102   0.12594   0.37825  -0.23545
N          N       0.42936   0.10576   0.27631  -0.17307
N          N       0.62038   0.09656   0.49342  -0.18443
N          N       0.16629   0.36403   0.65868  -0.19954
N          N       0.07764   0.63500   0.91587  -0.02070
N          N       0.09226   0.44534   0.69813  -0.03442
N          N       0.41556   0.41503   0.51999  -0.17375
N          N       0.12780   0.72838   0.87795  -0.23740
N          N       0.10711   0.42817   0.77613  -0.17533
N          N       0.09516   0.62036   0.99379  -0.18784
N          N       0.63606   0.83381   0.84164  -0.20123
N          N       0.36352   0.92152   0.58415  -0.02378
N          N       0.55559   0.90916   0.80216  -0.02825
N          N       0.58510   0.58427   0.97996  -0.17382
N          N       0.26894   0.87308   0.62173  -0.23347
N          N       0.57242   0.89471   0.72413  -0.17636
N          N       0.37875   0.90334   0.50635  -0.19041
O          O       0.84041   0.37205   0.85351  -0.56381
O          O       0.66450   0.75490   0.11798  -0.57341
O          O       0.62260   0.88140   0.26861  -0.55504
O          O       0.72137   0.10239   0.17120  -0.59815
O          O       0.83856   0.64954   0.07138  -0.51392
O          O       0.68546   0.27940   0.91653  -0.52699
O          O       0.50258   0.94225   0.02797  -0.44200
O          O       0.65396   0.80025   0.39375  -0.54010
O          O       0.72605   0.06388   0.04410  -0.47171
O          O       0.62824   0.15683   0.64612  -0.56665
O          O       0.24321   0.33135   0.38486  -0.57530
O          O       0.11983   0.38108   0.23124  -0.55471
O          O       0.90256   0.27384   0.32908  -0.59817
O          O       0.35461   0.16001   0.42881  -0.51345
O          O       0.72102   0.31212   0.58365  -0.53017
O          O       0.05736   0.49694   0.47216  -0.44398
O          O       0.19986   0.34625   0.10659  -0.54122
O          O       0.93861   0.26938   0.45663  -0.46616
O          O       0.15398   0.63108   0.14682  -0.56347
O          O       0.32936   0.23859   0.88519  -0.57886
O          O       0.37559   0.11390   0.73136  -0.55409
O          O       0.27824   0.89728   0.82924  -0.59919
O          O       0.15738   0.34927   0.92870  -0.51796
O          O       0.31157   0.71990   0.08338  -0.52249
O          O       0.49729   0.05621   0.97218  -0.44026
O          O       0.33788   0.19257   0.60672  -0.54228
O          O       0.26897   0.93770   0.95635  -0.46625
O          O       0.36741   0.84603   0.35319  -0.56449
O          O       0.76076   0.67198   0.61469  -0.58045
O          O       0.88302   0.62246   0.76743  -0.55544
O          O       0.09747   0.72582   0.67079  -0.60072
O          O       0.64782   0.84261   0.57154  -0.51882
O          O       0.28052   0.68716   0.41669  -0.52439
O          O       0.94371   0.49803   0.52842  -0.43823
O          O       0.80736   0.65995   0.89273  -0.54320
O          O       0.05992   0.73081   0.54348  -0.46990

