data_crystal

_audit_creation_method 'AiiDA-DDEC plugin'

_cell_length_a         7.94814
_cell_length_b        14.35179
_cell_length_c        16.81434

_cell_angle_alpha     104.29722
_cell_angle_beta     90.00000
_cell_angle_gamma     90.00000

_symmetry_space_group_name_Hall 'P 1'
_symmetry_space_group_name_H-M  'P 1'

loop_
_symmetry_equiv_pos_as_xyz
 'x,y,z'

loop_
_atom_site_label
_atom_site_type_symbol
_atom_site_fract_x
_atom_site_fract_y
_atom_site_fract_z
_atom_site_charge
Cd         Cd      0.69236   0.86188   0.83893   0.97188
Cd         Cd      0.19235   0.63812   0.66107   0.97186
Cd         Cd      0.30765   0.13812   0.16107   0.97191
Cd         Cd      0.80765   0.36188   0.33893   0.97191
H          H       0.85997   0.11223   0.07953   0.13311
H          H       0.07981   0.32461   0.91021   0.12688
H          H       0.94749   0.16556   0.84315   0.12769
H          H       0.43148   0.66216   0.82727   0.14049
H          H       0.62936   0.85362   0.03735   0.12930
H          H       0.25414   0.55989   0.90244   0.10611
H          H       0.25128   0.59397   0.01116   0.09306
H          H       0.37310   0.42761   0.95043   0.09148
H          H       0.53786   0.48066   0.90748   0.09517
H          H       0.35997   0.38776   0.42047   0.13312
H          H       0.57981   0.17538   0.58979   0.12698
H          H       0.44749   0.33443   0.65685   0.12766
H          H       0.93148   0.83783   0.67273   0.14037
H          H       0.12936   0.64638   0.46265   0.12928
H          H       0.75414   0.94010   0.59756   0.10600
H          H       0.75129   0.90602   0.48884   0.09309
H          H       0.87311   0.07238   0.54957   0.09136
H          H       0.03786   0.01934   0.59251   0.09515
H          H       0.14003   0.88776   0.92047   0.13314
H          H       0.92020   0.67539   0.08979   0.12690
H          H       0.05251   0.83444   0.15685   0.12768
H          H       0.56852   0.33784   0.17273   0.14038
H          H       0.37064   0.14638   0.96265   0.12931
H          H       0.74586   0.44010   0.09756   0.10608
H          H       0.74872   0.40602   0.98884   0.09322
H          H       0.62690   0.57238   0.04957   0.09141
H          H       0.46214   0.51934   0.09251   0.09512
H          H       0.64003   0.61223   0.57953   0.13318
H          H       0.42020   0.82461   0.41021   0.12687
H          H       0.55251   0.66556   0.34315   0.12768
H          H       0.06852   0.16216   0.32727   0.14040
H          H       0.87064   0.35362   0.53735   0.12923
H          H       0.24586   0.05989   0.40244   0.10610
H          H       0.24872   0.09397   0.51116   0.09307
H          H       0.12690   0.92762   0.45043   0.09148
H          H       0.96214   0.98066   0.40749   0.09513
C          C       0.89417   0.13027   0.95770  -0.01379
C          C       0.90803   0.15942   0.04311  -0.10238
C          C       0.97948   0.24823   0.08165  -0.10551
C          C       0.03829   0.30667   0.03231   0.08586
C          C       0.03013   0.27806   0.94673  -0.16235
C          C       0.95692   0.18967   0.90960  -0.07353
C          C       0.81506   0.03531   0.91878   0.54782
C          C       0.98177   0.27843   0.17391   0.58919
C          C       0.46821   0.69596   0.88966   0.07632
C          C       0.56494   0.79266  -0.00164   0.13552
C          C       0.33386   0.57659   0.95737  -0.10114
C          C       0.45079   0.49272   0.95981  -0.18401
C          C       0.39417   0.36973   0.54230  -0.01384
C          C       0.40803   0.34058   0.45689  -0.10237
C          C       0.47948   0.25177   0.41835  -0.10560
C          C       0.53829   0.19333   0.46769   0.08595
C          C       0.53013   0.22193   0.55327  -0.16226
C          C       0.45692   0.31033   0.59039  -0.07378
C          C       0.31505   0.46469   0.58122   0.54818
C          C       0.48177   0.22157   0.32609   0.58916
C          C       0.96821   0.80403   0.61034   0.07618
C          C       0.06494   0.70733   0.50164   0.13585
C          C       0.83386   0.92340   0.54263  -0.10103
C          C       0.95080   0.00727   0.54019  -0.18418
C          C       0.10583   0.86973   0.04230  -0.01383
C          C       0.09198   0.84057   0.95689  -0.10250
C          C       0.02052   0.75177   0.91834  -0.10550
C          C       0.96171   0.69332   0.96769   0.08579
C          C       0.96987   0.72193   0.05327  -0.16222
C          C       0.04308   0.81033   0.09039  -0.07369
C          C       0.18495   0.96469   0.08122   0.54796
C          C       0.01823   0.72156   0.82609   0.58910
C          C       0.53179   0.30403   0.11034   0.07625
C          C       0.43507   0.20733   0.00164   0.13571
C          C       0.66614   0.42340   0.04263  -0.10118
C          C       0.54921   0.50727   0.04019  -0.18416
C          C       0.60584   0.63027   0.45770  -0.01360
C          C       0.59198   0.65942   0.54311  -0.10229
C          C       0.52053   0.74823   0.58165  -0.10572
C          C       0.46171   0.80667   0.53231   0.08590
C          C       0.46987   0.77806   0.44673  -0.16231
C          C       0.54309   0.68967   0.40961  -0.07369
C          C       0.68495   0.53531   0.41878   0.54780
C          C       0.51823   0.77843   0.67391   0.58922
C          C       0.03179   0.19597   0.38966   0.07631
C          C       0.93507   0.29266   0.49836   0.13548
C          C       0.16614   0.07660   0.45737  -0.10115
C          C       0.04921   0.99272   0.45981  -0.18400
Br         Br      0.13016   0.43118   0.08466  -0.04069
Br         Br      0.63016   0.06881   0.41534  -0.04060
Br         Br      0.86985   0.56881   0.91534  -0.04052
Br         Br      0.36984   0.93118   0.58466  -0.04076
N          N       0.55694   0.77733   0.91463  -0.34481
N          N       0.48594   0.72557   0.02610  -0.26757
N          N       0.42449   0.66494   0.95590   0.18382
N          N       0.05694   0.72266   0.58537  -0.34470
N          N       0.98594   0.77443   0.47390  -0.26750
N          N       0.92449   0.83505   0.54410   0.18377
N          N       0.44306   0.22267   0.08537  -0.34479
N          N       0.51407   0.27443   0.97390  -0.26746
N          N       0.57551   0.33505   0.04410   0.18378
N          N       0.94306   0.27733   0.41463  -0.34469
N          N       0.01406   0.22557   0.52610  -0.26744
N          N       0.07551   0.16494   0.45590   0.18390
O          O       0.74963   0.98611   0.96428  -0.57029
O          O       0.81788   0.00651   0.84019  -0.56156
O          O       0.08092   0.23720   0.21373  -0.56469
O          O       0.87526   0.34288   0.20629  -0.54142
O          O       0.24963   0.51388   0.53571  -0.57041
O          O       0.31788   0.49348   0.65981  -0.56177
O          O       0.58093   0.26280   0.28627  -0.56468
O          O       0.37526   0.15711   0.29371  -0.54131
O          O       0.25038   0.01388   0.03571  -0.57032
O          O       0.18212   0.99349   0.15981  -0.56168
O          O       0.91908   0.76280   0.78627  -0.56477
O          O       0.12474   0.65711   0.79371  -0.54105
O          O       0.75038   0.48611   0.46429  -0.57022
O          O       0.68212   0.50651   0.34019  -0.56160
O          O       0.41908   0.73720   0.71373  -0.56469
O          O       0.62474   0.84288   0.70629  -0.54144

