data_crystal

_audit_creation_method 'AiiDA-DDEC plugin'

_cell_length_a        10.10583
_cell_length_b        10.97895
_cell_length_c        12.81714

_cell_angle_alpha     93.45809
_cell_angle_beta     96.30910
_cell_angle_gamma     102.27502

_symmetry_space_group_name_Hall 'P 1'
_symmetry_space_group_name_H-M  'P 1'

loop_
_symmetry_equiv_pos_as_xyz
 'x,y,z'

loop_
_atom_site_label
_atom_site_type_symbol
_atom_site_fract_x
_atom_site_fract_y
_atom_site_fract_z
_atom_site_charge
Zn         Zn      0.60917   0.79528   0.67576   1.08847
Zn         Zn      0.95672   0.71811   0.98608   1.08321
Zn         Zn      0.38839   0.69362   0.32052   1.07761
Zn         Zn      0.91631   0.56589   0.41615   1.05801
Zn         Zn      0.08871   0.93535   0.57961   1.05648
Zn         Zn      0.39083   0.20472   0.32424   1.08845
Zn         Zn      0.04328   0.28189   0.01393   1.08318
Zn         Zn      0.61161   0.30638   0.67948   1.07763
Zn         Zn      0.08370   0.43411   0.58386   1.05803
Zn         Zn      0.91129   0.06465   0.42039   1.05649
P          P       0.84039   0.93475   0.87868   1.28567
P          P       0.15733   0.56294   0.11542   1.27433
P          P       0.77534   0.78883   0.47616   1.27513
P          P       0.22550   0.70914   0.52094   1.27168
P          P       0.15961   0.06525   0.12132   1.28561
P          P       0.84267   0.43706   0.88458   1.27421
P          P       0.22467   0.21118   0.52384   1.27518
P          P       0.77451   0.29086   0.47906   1.27154
H          H       0.76407   0.10713   0.87808   0.42707
H          H       0.00302   0.11090   0.72984   0.35736
H          H      -0.00325   0.38589   0.25840   0.35965
H          H       0.62386   0.58502   0.31720   0.35889
H          H       0.37806   0.91371   0.68143   0.35914
H          H       0.07749   0.01361   0.86545   0.15191
H          H       0.92081   0.48019   0.12607   0.14358
H          H       0.76067   0.76534   0.28494   0.12989
H          H       0.23477   0.73458   0.71074   0.13265
H          H       0.23593   0.89287   0.12193   0.42715
H          H      -0.00302   0.88910   0.27016   0.35735
H          H       0.00325   0.61411   0.74161   0.35966
H          H       0.37614   0.41498   0.68280   0.35888
H          H       0.62194   0.08629   0.31857   0.35917
H          H       0.92251   0.98639   0.13455   0.15190
H          H       0.07919   0.51981   0.87393   0.14367
H          H       0.23933   0.23466   0.71507   0.12990
H          H       0.76524   0.26542   0.28926   0.13260
C          C       0.99346   0.95865   0.80798  -0.22664
C          C       0.02695   0.83362   0.77781   0.60819
C          C      -0.00122   0.53820   0.18701  -0.20009
C          C       0.96530   0.66267   0.21524   0.59425
C          C       0.68514   0.77176   0.33937  -0.20443
C          C       0.62334   0.88268   0.31648   0.61448
C          C       0.31302   0.72655   0.65911  -0.20535
C          C       0.37110   0.61389   0.68310   0.61441
C          C       0.00654   0.04135   0.19202  -0.22685
C          C       0.97306   0.16638   0.22219   0.60835
C          C       0.00122   0.46180   0.81299  -0.19992
C          C       0.03471   0.33733   0.78477   0.59406
C          C       0.31487   0.22824   0.66063  -0.20454
C          C       0.37667   0.11732   0.68353   0.61446
C          C       0.68699   0.27346   0.34090  -0.20512
C          C       0.62890   0.38611   0.31691   0.61444
O          O       0.71259   0.87904   0.80366  -0.75800
O          O       0.83234   0.07422   0.92091  -0.62907
O          O       0.87020   0.86742   0.97535  -0.70889
O          O       0.97375   0.01973   0.71417  -0.43291
O          O       0.03958   0.75579   0.84569  -0.53509
O          O       0.04089   0.80644   0.68241  -0.51903
O          O       0.11453   0.62980   0.01967  -0.70349
O          O       0.27227   0.64943   0.19024  -0.73472
O          O       0.18047   0.43212   0.08964  -0.70498
O          O       0.01721   0.47723   0.27920  -0.37359
O          O       0.96608   0.69726   0.31208  -0.51647
O          O       0.93875   0.73297   0.14424  -0.51254
O          O       0.81283   0.66499   0.49833  -0.70414
O          O       0.90339   0.89701   0.47637  -0.74922
O          O       0.67275   0.82510   0.54467  -0.73572
O          O       0.57989   0.66073   0.32730  -0.45847
O          O       0.70574   0.98802   0.31273  -0.53778
O          O       0.49438   0.86783   0.30212  -0.50900
O          O       0.09534   0.60353   0.52288  -0.74655
O          O       0.19325   0.83485   0.49728  -0.69779
O          O       0.32702   0.66688   0.45420  -0.73112
O          O       0.41974   0.83584   0.67259  -0.44762
O          O       0.28689   0.50986   0.68775  -0.53610
O          O       0.49972   0.62496   0.69692  -0.50325
O          O       0.28742   0.12096   0.19634  -0.75789
O          O       0.16766   0.92578   0.07909  -0.62913
O          O       0.12980   0.13258   0.02465  -0.70897
O          O       0.02625   0.98027   0.28583  -0.43280
O          O       0.96043   0.24421   0.15431  -0.53519
O          O       0.95911   0.19356   0.31759  -0.51897
O          O       0.88547   0.37020   0.98033  -0.70338
O          O       0.72773   0.35057   0.80976  -0.73473
O          O       0.81953   0.56788   0.91037  -0.70507
O          O       0.98280   0.52277   0.72080  -0.37371
O          O       0.03392   0.30274   0.68792  -0.51654
O          O       0.06125   0.26703   0.85577  -0.51234
O          O       0.18718   0.33501   0.50167  -0.70417
O          O       0.09661   0.10299   0.52364  -0.74930
O          O       0.32725   0.17490   0.45533  -0.73570
O          O       0.42012   0.33927   0.67270  -0.45833
O          O       0.29426   0.01198   0.68727  -0.53776
O          O       0.50562   0.13217   0.69789  -0.50889
O          O       0.90466   0.39647   0.47712  -0.74646
O          O       0.80675   0.16515   0.50272  -0.69771
O          O       0.67298   0.33312   0.54580  -0.73118
O          O       0.58026   0.16416   0.32741  -0.44770
O          O       0.71311   0.49014   0.31225  -0.53609
O          O       0.50028   0.37504   0.30308  -0.50343

