data_crystal

_audit_creation_method 'AiiDA-DDEC plugin'

_cell_length_a        14.66775
_cell_length_b        14.66770
_cell_length_c        14.66772

_cell_angle_alpha     60.00257
_cell_angle_beta     60.00179
_cell_angle_gamma     60.00174

_symmetry_space_group_name_Hall 'P 1'
_symmetry_space_group_name_H-M  'P 1'

loop_
_symmetry_equiv_pos_as_xyz
 'x,y,z'

loop_
_atom_site_label
_atom_site_type_symbol
_atom_site_fract_x
_atom_site_fract_y
_atom_site_fract_z
_atom_site_charge
Hf         Hf      0.11862   0.88138   0.88138   2.19534
Hf         Hf      0.88137   0.11863   0.88138   2.19545
Hf         Hf      0.88137   0.88138   0.11863   2.19535
Hf         Hf      0.11862   0.88138   0.11863   2.19530
Hf         Hf      0.88137   0.11863   0.11863   2.19529
Hf         Hf      0.11862   0.11863   0.88138   2.19525
H          H       0.59297   0.84668   0.13910   0.12180
H          H       0.84667   0.13910   0.59298   0.12200
H          H       0.13910   0.84668   0.42124   0.12182
H          H       0.59297   0.13910   0.84668   0.12184
H          H       0.13910   0.42124   0.84668   0.12183
H          H       0.42123   0.84668   0.59298   0.12195
H          H       0.42123   0.59298   0.13910   0.12196
H          H       0.84667   0.13910   0.42124   0.12204
H          H       0.84667   0.42124   0.59298   0.12202
H          H       0.09404   0.09405   0.71786   0.42250
H          H       0.13910   0.59298   0.42124   0.12185
H          H       0.59298   0.42124   0.13910   0.12188
H          H       0.59297   0.84668   0.42124   0.12184
H          H       0.09405   0.09405   0.09405   0.42244
H          H       0.42123   0.84668   0.13910   0.12190
H          H       0.42123   0.59298   0.84668   0.12206
H          H       0.71785   0.09405   0.09405   0.42260
H          H       0.59298   0.13910   0.42124   0.12188
H          H       0.09404   0.71786   0.09405   0.42240
H          H       0.13909   0.59299   0.84668   0.12183
H          H       0.84667   0.59298   0.13910   0.12197
H          H       0.42123   0.13910   0.59298   0.12195
H          H       0.84667   0.42124   0.13910   0.12201
H          H       0.84667   0.59298   0.42124   0.12206
H          H       0.13909   0.84668   0.59298   0.12179
H          H       0.59297   0.42124   0.84668   0.12184
H          H       0.42123   0.13910   0.84668   0.12198
H          H       0.13910   0.42124   0.59298   0.12182
C          C       0.90998   0.07570   0.55460  -0.09621
C          C       0.30735   0.99552   0.99552   0.62576
C          C       0.90998   0.55460   0.07569  -0.09607
C          C       0.45971   0.55460   0.90999  -0.09617
C          C       0.41132   0.60213   0.99327  -0.03991
C          C       0.45972   0.55460   0.07569  -0.09628
C          C       0.90998   0.55460   0.45972  -0.09612
C          C       0.45972   0.07570   0.55460  -0.09622
C          C       0.07569   0.90999   0.45972  -0.09631
C          C       0.55459   0.07570   0.90999  -0.09608
C          C       0.99327   0.60213   0.41133  -0.03989
C          C       0.07569   0.55460   0.45972  -0.09635
C          C       0.99327   0.99328   0.41133  -0.03989
C          C       0.70160   0.99552   0.30736   0.62577
C          C       0.70159   0.99553   0.99552   0.62589
C          C       0.70160   0.30736   0.99552   0.62581
C          C       0.99551   0.30736   0.70161   0.62584
C          C       0.55459   0.90999   0.45972  -0.09627
C          C       0.99551   0.99552   0.30736   0.62601
C          C       0.45971   0.07570   0.90999  -0.09609
C          C       0.55459   0.90999   0.07569  -0.09621
C          C       0.55460   0.45972   0.07569  -0.09621
C          C       0.41132   0.99328   0.60213  -0.03991
C          C       0.99327   0.41133   0.99328  -0.03984
C          C       0.41131   0.99328   0.99328  -0.04000
C          C       0.99327   0.41133   0.60213  -0.04006
C          C       0.07569   0.45972   0.90999  -0.09634
C          C       0.99326   0.99328   0.60213  -0.03959
C          C       0.90998   0.07570   0.45972  -0.09604
C          C       0.60212   0.99328   0.41133  -0.03986
C          C       0.99326   0.60213   0.99327  -0.03976
C          C       0.60212   0.41133   0.99327  -0.04000
C          C       0.07569   0.55460   0.90999  -0.09635
C          C       0.60212   0.99328   0.99327  -0.03989
C          C       0.45971   0.90999   0.07569  -0.09613
C          C       0.55459   0.45972   0.90999  -0.09615
C          C       0.90998   0.45972   0.55460  -0.09603
C          C       0.99551   0.99553   0.70160   0.62585
C          C       0.45971   0.90999   0.55460  -0.09612
C          C       0.55460   0.07570   0.45972  -0.09617
C          C       0.99551   0.30736   0.99552   0.62588
C          C       0.07569   0.45972   0.55460  -0.09630
C          C       0.07569   0.90999   0.55460  -0.09650
C          C       0.30735   0.99552   0.70161   0.62565
C          C       0.99551   0.70161   0.30736   0.62570
C          C       0.90998   0.45972   0.07569  -0.09618
C          C       0.30735   0.70161   0.99552   0.62555
C          C       0.99551   0.70161   0.99552   0.62576
O          O       0.07487   0.91942   0.26598  -0.59028
O          O       0.95037   0.95038   0.14887  -1.09062
O          O       0.26597   0.91942   0.73974  -0.58995
O          O       0.07487   0.26598   0.91942  -0.59020
O          O       0.73972   0.07488   0.26598  -0.59005
O          O       0.91941   0.26598   0.73974  -0.58982
O          O       0.07488   0.26598   0.73973  -0.59026
O          O       0.26597   0.73973   0.07488  -0.58988
O          O       0.14886   0.95038   0.95038  -1.09075
O          O       0.07488   0.73973   0.26598  -0.59018
O          O       0.73972   0.26598   0.07488  -0.59012
O          O       0.91941   0.07488   0.26598  -0.58982
O          O       0.06706   0.06707   0.06706  -0.99676
O          O       0.91941   0.26598   0.07488  -0.58983
O          O       0.91941   0.07488   0.73973  -0.58974
O          O       0.73972   0.07488   0.91942  -0.59006
O          O       0.26597   0.07488   0.91942  -0.58980
O          O       0.26597   0.07488   0.73973  -0.58984
O          O       0.95036   0.95038   0.95038  -1.09050
O          O       0.91941   0.73973   0.07488  -0.58974
O          O       0.73973   0.91942   0.26598  -0.59002
O          O       0.73973   0.26598   0.91942  -0.59000
O          O       0.06706   0.06707   0.79881  -0.99687
O          O       0.73972   0.91942   0.07488  -0.59023
O          O       0.91941   0.73974   0.26598  -0.58973
O          O       0.07487   0.91942   0.73973  -0.59040
O          O       0.95037   0.14887   0.95038  -1.09062
O          O       0.07487   0.73973   0.91942  -0.59024
O          O       0.79881   0.06707   0.06707  -0.99686
O          O       0.06706   0.79881   0.06707  -0.99686
O          O       0.26597   0.73974   0.91942  -0.58981
O          O       0.26597   0.91942   0.07488  -0.58995

