data_crystal

_audit_creation_method 'AiiDA-DDEC plugin'

_cell_length_a        12.50761
_cell_length_b        14.15884
_cell_length_c        14.06776

_cell_angle_alpha     104.37178
_cell_angle_beta     89.80267
_cell_angle_gamma     89.95188

_symmetry_space_group_name_Hall 'P 1'
_symmetry_space_group_name_H-M  'P 1'

loop_
_symmetry_equiv_pos_as_xyz
 'x,y,z'

loop_
_atom_site_label
_atom_site_type_symbol
_atom_site_fract_x
_atom_site_fract_y
_atom_site_fract_z
_atom_site_charge
Zn         Zn      0.51137   0.84350   0.16164   0.90075
Zn         Zn      0.01336   0.65887   0.33996   0.89972
Zn         Zn      0.77613   0.43521   0.79281   0.91835
Zn         Zn      0.72169   0.93482   0.29283   0.91768
Zn         Zn      0.27831   0.06518   0.70717   0.91768
Zn         Zn      0.22387   0.56479   0.20719   0.91830
Zn         Zn      0.98664   0.34113   0.66004   0.89970
Zn         Zn      0.48862   0.15650   0.83836   0.90080
H          H       0.94523   0.75226   0.12192   0.14214
H          H       0.56465   0.86583   0.49586   0.12885
H          H       0.67267   0.60620   0.96733   0.11313
H          H       0.82571   0.10344   0.46532   0.11378
H          H       0.18674   0.82489   0.85550   0.13534
H          H       0.44461   0.74721   0.37759   0.14217
H          H       0.31104   0.20618   0.46315   0.13277
H          H       0.94325   0.52125   0.46947   0.10435
H          H       0.05476   0.24774   0.87808   0.14218
H          H       0.68896   0.79382   0.53685   0.13282
H          H       0.55539   0.25279   0.62241   0.14214
H          H       0.19007   0.70596   0.96368   0.13375
H          H       0.80992   0.29404   0.03632   0.13373
H          H       0.81325   0.17511   0.14450   0.13525
H          H       0.06333   0.63210   0.00224   0.12860
H          H       0.05675   0.47875   0.53053   0.10444
H          H       0.31494   0.32528   0.35497   0.13518
H          H       0.93667   0.36790  -0.00224   0.12862
H          H       0.43535   0.13417   0.50413   0.12887
H          H       0.44314   0.97867   0.03088   0.10420
H          H       0.17429   0.89656   0.53468   0.11380
H          H       0.68506   0.67472   0.64503   0.13518
H          H       0.55685   0.02134   0.96912   0.10416
H          H       0.32733   0.39380   0.03267   0.11310
C          C       0.47805   0.86789   0.50339  -0.13403
C          C       0.58758   0.19655   0.56182  -0.01925
C          C       0.82544   0.51967   0.63196   0.58739
C          C       0.73978   0.11330   0.47481   0.09134
C          C       0.02324   0.36882   0.00423  -0.13173
C          C       0.07129   0.43934   0.07890   0.09959
C          C       0.75874   0.61501   0.97598   0.09253
C          C       0.68403   0.08975   0.06649  -0.06584
C          C       0.75568   0.23228   0.02399  -0.12160
C          C       0.61362   0.08069   0.98784   0.09348
C          C       0.43095   0.93893   0.57858   0.10297
C          C       0.74340   0.73210   0.52465  -0.12221
C          C       0.74163   0.66670   0.58450  -0.03294
C          C       0.32745   0.97985   0.86801   0.58891
C          C       0.17456   0.48033   0.36804   0.58740
C          C       0.69863   0.18840   0.54992  -0.06069
C          C       0.24126   0.38499   0.02402   0.09246
C          C       0.22806   0.74071   0.38396   0.59412
C          C       0.31596   0.91025   0.93351  -0.06589
C          C       0.24287   0.83308   0.91604  -0.03190
C          C       0.41242   0.80345   0.43818  -0.01917
C          C       0.50205   0.99215   0.34570   0.53234
C          C       0.27064   0.23810   0.88207   0.59635
C          C       0.77194   0.25929   0.61603   0.59428
C          C       0.66750   0.28702   0.88066   0.55180
C          C       0.25837   0.33330   0.41550  -0.03291
C          C       0.68010   0.22007   0.94911   0.10189
C          C       0.19898   0.31035   0.94927  -0.06183
C          C       0.56905   0.06107   0.42141   0.10300
C          C       0.31989   0.77993   0.05089   0.10184
C          C       0.99568   0.49153   0.84500   0.53340
C          C       0.81498   0.58957   0.56687  -0.06559
C          C       0.16785   0.21270   0.61804   0.55198
C          C       0.72936   0.76190   0.11793   0.59622
C          C       0.81987   0.72008   0.45005   0.10491
C          C       0.80102   0.68965   0.05073  -0.06180
C          C       0.91213   0.69645   0.06165  -0.02234
C          C       0.30137   0.81160   0.45008  -0.06069
C          C       0.88635   0.58066   0.48843   0.09309
C          C       0.08787   0.30355   0.93835  -0.02232
C          C       0.97676   0.63118   0.99576  -0.13175
C          C       0.24432   0.76773   0.97601  -0.12160
C          C       0.83215   0.78730   0.38195   0.55196
C          C       0.49795   0.00785   0.65430   0.53233
C          C       0.00432   0.50847   0.15500   0.53343
C          C       0.11365   0.41934   0.51156   0.09298
C          C       0.52195   0.13211   0.49661  -0.13392
C          C       0.18502   0.41043   0.43313  -0.06550
C          C       0.33250   0.71298   0.11934   0.55187
C          C       0.75713   0.16692   0.08396  -0.03199
C          C       0.38638   0.91932   0.01216   0.09342
C          C       0.18013   0.27992   0.54994   0.10483
C          C       0.25660   0.26790   0.47535  -0.12218
C          C       0.92871   0.56066   0.92110   0.09958
C          C       0.26022   0.88671   0.52519   0.09142
C          C       0.67255   0.02015   0.13199   0.58887
N          N       0.67649   0.05118   0.41222  -0.24205
N          N       0.17873   0.44800   0.08731  -0.24189
N          N       0.89049   0.64539   0.43343  -0.24494
N          N       0.38999   0.85490   0.06745  -0.24456
N          N       0.10951   0.35461   0.56656  -0.24493
N          N       0.61001   0.14510   0.93255  -0.24458
N          N       0.32351   0.94882   0.58778  -0.24209
N          N       0.82127   0.55200   0.91269  -0.24187
O          O       0.26473   0.64390   0.10906  -0.54064
O          O       0.59852   0.95753   0.10934  -0.57699
O          O       0.08964   0.22822   0.67702  -0.50849
O          O       0.26417   0.96698   0.79494  -0.55033
O          O       0.27436   0.67147   0.32345  -0.53212
O          O       0.22295   0.16914   0.82292  -0.52915
O          O       0.89935   0.45668   0.60908  -0.57491
O          O       0.73527   0.35610   0.89094  -0.54074
O          O       0.73582   0.03302   0.20506  -0.55044
O          O       0.40731   0.00922   0.33367  -0.48026
O          O       0.40830   0.73119   0.18034  -0.50762
O          O       0.40148   0.04247   0.89066  -0.57709
O          O       0.05777   0.58573   0.20494  -0.57845
O          O       0.76145   0.53260   0.70500  -0.54956
O          O       0.12767   0.75659   0.39557  -0.54519
O          O       0.59269   0.99078   0.66632  -0.48032
O          O       0.91036   0.77178   0.32298  -0.50842
O          O       0.44420   0.08516   0.70435  -0.57737
O          O       0.90967   0.49099   0.16688  -0.48052
O          O       0.72564   0.32853   0.67655  -0.53221
O          O       0.77705   0.83086   0.17707  -0.52913
O          O       0.94223   0.41427   0.79506  -0.57847
O          O       0.62880   0.74722   0.10902  -0.54997
O          O       0.09033   0.50901   0.83312  -0.48052
O          O       0.37120   0.25278   0.89098  -0.55005
O          O       0.10065   0.54332   0.39091  -0.57492
O          O       0.55580   0.91484   0.29565  -0.57737
O          O       0.59170   0.26881   0.81965  -0.50741
O          O       0.76147   0.85390   0.39061  -0.54179
O          O       0.87233   0.24341   0.60443  -0.54524
O          O       0.23852   0.14610   0.60938  -0.54171
O          O       0.23854   0.46740   0.29500  -0.54956

