data_crystal

_audit_creation_method 'AiiDA-DDEC plugin'

_cell_length_a         5.82770
_cell_length_b        12.43539
_cell_length_c        23.75437

_cell_angle_alpha     89.99502
_cell_angle_beta     90.01742
_cell_angle_gamma     96.18554

_symmetry_space_group_name_Hall 'P 1'
_symmetry_space_group_name_H-M  'P 1'

loop_
_symmetry_equiv_pos_as_xyz
 'x,y,z'

loop_
_atom_site_label
_atom_site_type_symbol
_atom_site_fract_x
_atom_site_fract_y
_atom_site_fract_z
_atom_site_charge
Lu         Lu      0.02294   0.61899   0.67766   1.62897
Lu         Lu      0.47680   0.88342   0.17743   1.63203
Lu         Lu      0.97706   0.38100   0.32234   1.62874
Lu         Lu      0.52320   0.11659   0.82258   1.63233
Cu         Cu      0.49998  -0.00001   0.50001   0.80566
Cu         Cu     -0.00000   0.50000   0.00000   0.80839
H          H       0.37217   0.93537   0.70041   0.08958
H          H       0.52870   0.77191   0.65675   0.11750
H          H       0.67195   0.15503   0.60160   0.13550
H          H       0.96309   0.12752   0.67773   0.10008
H          H       0.12716   0.56445   0.20072   0.08857
H          H       0.97276   0.72880   0.15699   0.11659
H          H       0.82653   0.34627   0.10150   0.13393
H          H       0.53490   0.37263   0.17750   0.09940
H          H       0.62782   0.06462   0.29959   0.08948
H          H       0.47129   0.22808   0.34325   0.11728
H          H       0.32804   0.84496   0.39840   0.13570
H          H       0.03691   0.87247   0.32227   0.10023
H          H       0.87286   0.43554   0.79928   0.08849
H          H       0.02727   0.27118   0.84301   0.11676
H          H       0.17347   0.65371   0.89850   0.13364
H          H       0.46511   0.62737   0.82250   0.09936
C          C       0.10819   0.77225   0.78363   0.54882
C          C       0.91400   0.82719   0.75671   0.06165
C          C       0.84245   0.92484   0.77583   0.04458
C          C       0.98552   0.00960   0.81006   0.62826
C          C       0.52843   0.90444   0.71639   0.07517
C          C       0.61287   0.81277   0.69293   0.08641
C          C       0.18063   0.82636   0.59352   0.61429
C          C       0.03687   0.92025   0.59680   0.05990
C          C       0.87162   0.93349   0.55557   0.03803
C          C       0.82394   0.85618   0.50689   0.52887
C          C       0.77733   0.08793   0.60098   0.07014
C          C       0.94167   0.07197   0.64219   0.06336
C          C       0.38996   0.72909   0.28322   0.55184
C          C       0.58454   0.67324   0.25681   0.06085
C          C       0.65652   0.57538   0.27592   0.04497
C          C       0.51493   0.48976   0.30985   0.62707
C          C       0.97077   0.59577   0.21637   0.07569
C          C       0.88722   0.68782   0.19309   0.08773
C          C       0.31921   0.67459   0.09346   0.61335
C          C       0.46271   0.58056   0.09709   0.06220
C          C       0.62782   0.56743   0.05575   0.03756
C          C       0.67370   0.64405   0.00671   0.52955
C          C       0.72297   0.41379   0.10136   0.06759
C          C       0.55805   0.42915   0.14244   0.06421
C          C       0.89180   0.22775   0.21637   0.54875
C          C       0.08599   0.17280   0.24329   0.06169
C          C       0.15753   0.07515   0.22416   0.04446
C          C       0.01446   0.99039   0.18992   0.62851
C          C       0.47155   0.09556   0.28361   0.07538
C          C       0.38712   0.18722   0.30707   0.08654
C          C       0.81936   0.17363   0.40648   0.61434
C          C       0.96313   0.07974   0.40320   0.05985
C          C       0.12837   0.06650   0.44443   0.03795
C          C       0.17605   0.14381   0.49311   0.52877
C          C       0.22267   0.91206   0.39902   0.07003
C          C       0.05833   0.92803   0.35781   0.06335
C          C       0.61004   0.27090   0.71676   0.55168
C          C       0.41546   0.32676   0.74319   0.06098
C          C       0.34346   0.42462   0.72408   0.04470
C          C       0.48508   0.51024   0.69014   0.62740
C          C       0.02924   0.40422   0.78362   0.07573
C          C       0.11280   0.31217   0.80691   0.08761
C          C       0.68077   0.32535   0.90655   0.61326
C          C       0.53732   0.41941   0.90291   0.06222
C          C       0.37217   0.43255   0.94424   0.03779
C          C       0.32628   0.35593   0.99328   0.52903
C          C       0.27704   0.58620   0.89864   0.06770
C          C       0.44194   0.57083   0.85756   0.06397
N          N       0.79770   0.77150   0.71479  -0.24590
N          N       0.64098   0.95858   0.75877  -0.22603
N          N       0.06998   0.98810   0.64107  -0.24969
N          N       0.74300   0.01642   0.55874  -0.20461
N          N       0.70289   0.72913   0.21524  -0.24649
N          N       0.85800   0.54188   0.25876  -0.22620
N          N       0.43043   0.51323   0.14161  -0.25014
N          N       0.75863   0.48536   0.05922  -0.20154
N          N       0.20228   0.22849   0.28522  -0.24613
N          N       0.35901   0.04141   0.24123  -0.22603
N          N       0.93002   0.01189   0.35893  -0.24950
N          N       0.25699   0.98357   0.44126  -0.20450
N          N       0.29712   0.27087   0.78476  -0.24613
N          N       0.14199   0.45813   0.74124  -0.22624
N          N       0.56954   0.48673   0.85839  -0.25020
N          N       0.24136   0.51463   0.94078  -0.20155
O          O       0.16985   0.69188   0.75361  -0.64083
O          O       0.18613   0.80132   0.82991  -0.46106
O          O       0.87489   0.07471   0.83732  -0.55052
O          O       0.20219   0.02017   0.80389  -0.55932
O          O       0.37765   0.83873   0.57425  -0.50145
O          O       0.08601   0.73797   0.61785  -0.64058
O          O       0.93442   0.77673   0.50405  -0.46134
O          O       0.67132   0.88360   0.47125  -0.54982
O          O       0.33127   0.80975   0.25275  -0.64413
O          O       0.30816   0.69965   0.32897  -0.46075
O          O       0.62487   0.42392   0.33695  -0.55454
O          O       0.29801   0.48016   0.30427  -0.55735
O          O       0.12414   0.66295   0.07297  -0.50043
O          O       0.41360   0.76244   0.11836  -0.64321
O          O       0.56777   0.72509   0.00457  -0.46143
O          O       0.82056   0.61387   0.97029  -0.55398
O          O       0.83014   0.30812   0.24639  -0.64090
O          O       0.81387   0.19869   0.17009  -0.46093
O          O       0.12512   0.92529   0.16266  -0.55042
O          O       0.79781   0.97982   0.19611  -0.55918
O          O       0.62235   0.16126   0.42575  -0.50138
O          O       0.91398   0.26203   0.38215  -0.64076
O          O       0.06558   0.22326   0.49595  -0.46160
O          O       0.32867   0.11639   0.52875  -0.54975
O          O       0.66869   0.19023   0.74724  -0.64411
O          O       0.69177   0.30033   0.67101  -0.46079
O          O       0.37513   0.57609   0.66306  -0.55487
O          O       0.70199   0.51984   0.69573  -0.55748
O          O       0.87578   0.33695   0.92704  -0.50033
O          O       0.58624   0.23754   0.88164  -0.64312
O          O       0.43222   0.27489   0.99544  -0.46082
O          O       0.17944   0.38612   0.02970  -0.55392

