data_crystal

_audit_creation_method 'AiiDA-DDEC plugin'

_cell_length_a         4.65445
_cell_length_b        14.12997
_cell_length_c        23.39221

_cell_angle_alpha     97.78672
_cell_angle_beta     90.02722
_cell_angle_gamma     90.13203

_symmetry_space_group_name_Hall 'P 1'
_symmetry_space_group_name_H-M  'P 1'

loop_
_symmetry_equiv_pos_as_xyz
 'x,y,z'

loop_
_atom_site_label
_atom_site_type_symbol
_atom_site_fract_x
_atom_site_fract_y
_atom_site_fract_z
_atom_site_charge
Ba         Ba      0.68781   0.88923   0.25848   1.53096
Ba         Ba      0.19070   0.60560   0.24082   1.52654
Ba         Ba      0.31218   0.11076   0.74152   1.53091
Ba         Ba      0.80929   0.39439   0.75918   1.52649
H          H       0.80627   0.06331   0.14951   0.11658
H          H       0.66596   0.20386   0.10124   0.11219
H          H       0.53717   0.21701   0.22449   0.10936
H          H       0.39855   0.35855   0.17810   0.12593
H          H       0.75386   0.24042   0.90580   0.12583
H          H       0.64321   0.27307   0.01127   0.11729
H          H       0.40254   0.44793   0.03615   0.11964
H          H       0.50885   0.41360   0.92999   0.11447
H          H       0.30942   0.43506   0.34947   0.11577
H          H       0.16080   0.29575   0.39846   0.11264
H          H       0.03344   0.27785   0.27548   0.11045
H          H       0.88884   0.13799   0.32342   0.12611
H          H       0.24972   0.26204   0.59373   0.12505
H          H       0.14035   0.22622   0.48850   0.11717
H          H       0.89552   0.05040   0.46610   0.11949
H          H       0.00110   0.08770   0.57202   0.11600
H          H       0.19372   0.93668   0.85048   0.11632
H          H       0.33403   0.79614   0.89876   0.11202
H          H       0.46282   0.78298   0.77550   0.10963
H          H       0.60144   0.64144   0.82190   0.12633
H          H       0.24614   0.75958   0.09420   0.12562
H          H       0.35678   0.72692   0.98872   0.11723
H          H       0.59745   0.55206   0.96385   0.12002
H          H       0.49115   0.58639   0.07001   0.11454
H          H       0.69058   0.56493   0.65053   0.11596
H          H       0.83920   0.70425   0.60154   0.11269
H          H       0.96655   0.72214   0.72452   0.11039
H          H       0.11116   0.86201   0.67657   0.12598
H          H       0.75027   0.73795   0.40627   0.12532
H          H       0.85964   0.77377   0.51150   0.11730
H          H       0.10447   0.94959   0.53390   0.11931
H          H      -0.00111   0.91229   0.42798   0.11595
C          C       0.29863   0.04672   0.21425   0.57596
C          C       0.19249   0.12863   0.18574  -0.04330
C          C       0.94066   0.12675   0.15371  -0.07647
C          C       0.85126   0.20772   0.12949  -0.09503
C          C       0.35855   0.21322   0.19474  -0.08082
C          C       0.27016   0.29413   0.17158  -0.05417
C          C       0.02588   0.29022   0.13782  -0.09973
C          C       0.20109   0.29800   0.84952   0.56433
C          C       0.14772   0.31838   0.91291  -0.04458
C          C       0.90084   0.28203   0.93545  -0.07534
C          C       0.83039   0.30469   0.99379  -0.09291
C          C       0.01719   0.36518   0.02950  -0.09309
C          C       0.25951   0.40378   0.00725  -0.08424
C          C       0.32901   0.38005   0.94891  -0.07673
C          C       0.80251   0.44849   0.28437   0.57642
C          C       0.69134   0.36763   0.31334  -0.04257
C          C       0.43934   0.37086   0.34534  -0.07556
C          C       0.34546   0.29069   0.37005  -0.09496
C          C       0.85445   0.28261   0.30511  -0.08140
C          C       0.76236   0.20264   0.32890  -0.05490
C          C       0.51728   0.20777   0.36237  -0.09782
C          C       0.69348   0.20648   0.65146   0.56184
C          C       0.64343   0.18431   0.58794  -0.04609
C          C       0.39729   0.21979   0.56470  -0.07734
C          C       0.32725   0.19543   0.50647  -0.09244
C          C       0.51340   0.13430   0.47132  -0.09331
C          C       0.75382   0.09597   0.49431  -0.08038
C          C       0.82326   0.12138   0.55261  -0.07770
C          C       0.70137   0.95328   0.78575   0.57621
C          C       0.80751   0.87137   0.81426  -0.04346
C          C       0.05933   0.87324   0.84628  -0.07645
C          C       0.14873   0.79227   0.87051  -0.09512
C          C       0.64144   0.78677   0.80526  -0.08106
C          C       0.72984   0.70586   0.82841  -0.05405
C          C       0.97411   0.70977   0.86218  -0.09978
C          C       0.79890   0.70199   0.15048   0.56474
C          C       0.85227   0.68161   0.08709  -0.04486
C          C       0.09916   0.71796   0.06455  -0.07535
C          C       0.16961   0.69530   0.00621  -0.09309
C          C       0.98281   0.63481   0.97050  -0.09330
C          C       0.74049   0.59621   0.99275  -0.08396
C          C       0.67099   0.61994   0.05109  -0.07664
C          C       0.19748   0.55150   0.71563   0.57633
C          C       0.30865   0.63236   0.68666  -0.04265
C          C       0.56066   0.62914   0.65466  -0.07540
C          C       0.65453   0.70930   0.62995  -0.09485
C          C       0.14554   0.71738   0.69489  -0.08125
C          C       0.23764   0.79736   0.67110  -0.05515
C          C       0.48272   0.79222   0.63762  -0.09790
C          C       0.30652   0.79351   0.34854   0.56177
C          C       0.35657   0.81568   0.41205  -0.04614
C          C       0.60271   0.78020   0.43529  -0.07716
C          C       0.67274   0.80457   0.49353  -0.09249
C          C       0.48659   0.86569   0.52868  -0.09343
C          C       0.24617   0.90403   0.50569  -0.08059
C          C       0.17673   0.87861   0.44738  -0.07760
S          S       0.92231   0.39114   0.10419   1.01103
S          S       0.41490   0.10759   0.39679   1.00373
S          S       0.07769   0.60886   0.89581   1.01100
S          S       0.58510   0.89240   0.60320   1.00391
O          O       0.53829   0.06190   0.24015  -0.61130
O          O       0.02188   0.24299   0.81930  -0.67787
O          O       0.06260   0.47915   0.13119  -0.55286
O          O       0.15812   0.96734   0.21191  -0.68288
O          O       0.41346   0.33813   0.82807  -0.65734
O          O       0.60840   0.38574   0.10237  -0.52212
O          O       0.04292   0.43250   0.25926  -0.60706
O          O       0.51357   0.26225   0.68058  -0.67471
O          O       0.55426   0.01977   0.36959  -0.54836
O          O       0.66556   0.52823   0.28559  -0.68529
O          O       0.90134   0.16650   0.67448  -0.66225
O          O       0.10097   0.11394   0.39989  -0.52185
O          O       0.46171   0.93809   0.75985  -0.61103
O          O       0.97811   0.75700   0.18069  -0.67851
O          O       0.93740   0.52084   0.86880  -0.55234
O          O       0.84188   0.03265   0.78808  -0.68339
O          O       0.58654   0.66186   0.17192  -0.65721
O          O       0.39160   0.61425   0.89763  -0.52229
O          O       0.95707   0.56749   0.74074  -0.60721
O          O       0.48642   0.73774   0.31941  -0.67428
O          O       0.44573   0.98022   0.63040  -0.54879
O          O       0.33443   0.47177   0.71441  -0.68494
O          O       0.09865   0.83349   0.32552  -0.66244
O          O       0.89903   0.88605   0.60010  -0.52186

