data_crystal

_audit_creation_method 'AiiDA-DDEC plugin'

_cell_length_a         7.52062
_cell_length_b        14.27539
_cell_length_c        21.24901

_cell_angle_alpha     89.83367
_cell_angle_beta     90.03775
_cell_angle_gamma     90.74505

_symmetry_space_group_name_Hall 'P 1'
_symmetry_space_group_name_H-M  'P 1'

loop_
_symmetry_equiv_pos_as_xyz
 'x,y,z'

loop_
_atom_site_label
_atom_site_type_symbol
_atom_site_fract_x
_atom_site_fract_y
_atom_site_fract_z
_atom_site_charge
Cd         Cd      0.47697   0.10999   0.06674   0.90725
Cd         Cd      0.48398   0.89346   0.93376   0.90561
Cd         Cd      0.48105   0.60859   0.43390   0.90924
Cd         Cd      0.49709   0.39142   0.56580   0.90594
H          H       0.80430   0.22657   0.01848   0.12663
H          H       0.81095   0.97308   0.11453   0.11757
H          H       0.81181   0.76819   0.97659   0.12635
H          H       0.81730   0.03201   0.89378   0.11568
H          H       0.14876   0.72741   0.48459   0.12491
H          H       0.15176   0.47609   0.38722   0.11851
H          H       0.16412   0.27158   0.51555   0.12380
H          H       0.17212   0.52254   0.61407   0.11867
H          H       0.15249   0.76615   0.97276   0.12802
H          H       0.15704   0.03298   0.89489   0.11428
H          H       0.14486   0.22961   0.01643   0.12509
H          H       0.15070   0.97701   0.11375   0.11828
H          H       0.82342   0.27036   0.51831   0.12649
H          H       0.83244   0.52449   0.61232   0.11814
H          H       0.80836   0.72666   0.48154   0.12547
H          H       0.81191   0.47386   0.38520   0.11636
H          H       0.59320   0.18442   0.39975   0.14218
H          H       0.43075   0.44597   0.31696   0.12729
H          H       0.43541   0.37195   0.21072   0.13412
H          H       0.39176   0.81492   0.60102   0.14111
H          H       0.56596   0.55567   0.68367   0.12218
H          H       0.55906   0.62892   0.78983   0.12965
H          H       0.58443   0.68138   0.10124   0.14121
H          H       0.43315   0.94588   0.18148   0.12664
H          H       0.43707   0.87385   0.28831   0.13525
H          H       0.59885   0.31906   0.89826   0.14079
H          H       0.41323   0.05715   0.81965   0.12070
H          H       0.41889   0.12825   0.71304   0.12937
C          C       0.88345   0.17075   0.03892   0.05148
C          C       0.88653   0.02974   0.09228   0.06029
C          C       0.89040   0.82662   0.95795   0.04947
C          C       0.89308   0.97376   0.91266   0.05414
C          C       0.07177   0.67124   0.46255   0.04609
C          C       0.07341   0.53118   0.40859   0.05749
C          C       0.08876   0.32753   0.53737   0.04937
C          C       0.09358   0.46749   0.59145   0.05525
C          C       0.07610   0.82593   0.95648   0.05486
C          C       0.07858   0.97393   0.91252   0.05792
C          C       0.06910   0.17244   0.03807   0.04522
C          C       0.07219   0.03188   0.09194   0.05771
C          C       0.90312   0.32708   0.53848   0.04874
C          C       0.90807   0.46810   0.59131   0.06029
C          C       0.88619   0.67039   0.46126   0.05550
C          C       0.88781   0.52997   0.40774   0.05852
C          C       0.51958   0.23815   0.24477  -0.04428
C          C       0.57060   0.18812   0.29867   0.05196
C          C       0.55943   0.22584   0.35857  -0.15416
C          C       0.50511   0.31892   0.36553  -0.03861
C          C       0.46533   0.37253   0.31202  -0.09333
C          C       0.47004   0.33168   0.25240  -0.07662
C          C       0.50185   0.19217   0.18166   0.55448
C          C       0.48976   0.35795   0.43055   0.56127
C          C       0.46430   0.76141   0.75627  -0.04591
C          C       0.41387   0.81121   0.70217   0.05139
C          C       0.42650   0.77368   0.64218  -0.15406
C          C       0.48336   0.68114   0.63523  -0.03831
C          C       0.52712   0.62845   0.68875  -0.08615
C          C       0.51991   0.66882   0.74844  -0.07686
C          C       0.47177   0.80603   0.82019   0.55516
C          C       0.49692   0.64052   0.57059   0.56121
C          C       0.51658   0.73854   0.25595  -0.04389
C          C       0.56377   0.68717   0.20232   0.05045
C          C       0.55250   0.72390   0.14193  -0.15298
C          C       0.50265   0.81752   0.13391  -0.03529
C          C       0.46500   0.87213   0.18696  -0.09672
C          C       0.46915   0.83230   0.24708  -0.07612
C          C       0.50391   0.69473   0.32028   0.55212
C          C       0.49141   0.85666   0.06854   0.56125
C          C       0.51944   0.26215   0.74413  -0.03904
C          C       0.57543   0.31273   0.79741   0.05049
C          C       0.56157   0.27654   0.85793  -0.15297
C          C       0.50010   0.18423   0.86664  -0.03864
C          C       0.45384   0.13018   0.81388  -0.08689
C          C       0.46037   0.16959   0.75360  -0.07771
C          C       0.50825   0.30569   0.67966   0.55210
C          C       0.48510   0.14703   0.93247   0.55615
N          N       0.79369   0.09832   0.06472  -0.18518
N          N       0.80048   0.90112   0.93681  -0.18701
N          N       0.16380   0.60085   0.43706  -0.18645
N          N       0.18245   0.39845   0.56307  -0.18627
N          N       0.16861   0.90062   0.93528  -0.17825
N          N       0.16200   0.10225   0.06372  -0.18161
N          N       0.81437   0.39860   0.56399  -0.17863
N          N       0.79572   0.59874   0.43508  -0.18317
N          N       0.64956   0.09448   0.29308   0.53759
N          N       0.33539   0.90492   0.70719   0.53578
N          N       0.64192   0.59337   0.20846   0.53690
N          N       0.66297   0.40533   0.79119   0.53332
O          O       0.45534   0.10587   0.18045  -0.57042
O          O       0.52807   0.24182   0.13271  -0.54287
O          O       0.77705   0.08743   0.25648  -0.34068
O          O       0.39990   0.96775   0.67338  -0.32166
O          O       0.58036   0.52986   0.17481  -0.32764
O          O       0.61584   0.46783   0.82790  -0.32525
O          O       0.50923   0.89371   0.82264  -0.57107
O          O       0.44590   0.75474   0.86827  -0.54510
O          O       0.20589   0.91270   0.74288  -0.33670
O          O       0.58897   0.03128   0.32730  -0.32584
O          O       0.46545   0.39215   0.67627  -0.57058
O          O       0.53629   0.25449   0.63208  -0.54000
O          O       0.78404   0.41274   0.75175  -0.33832
O          O       0.46344   0.60732   0.32358  -0.57101
O          O       0.52797   0.74616   0.36816  -0.54298
O          O       0.77032   0.58664   0.24472  -0.33786
O          O       0.45481   0.44418   0.43851  -0.61469
O          O       0.50995   0.30085   0.47642  -0.54788
O          O       0.54416   0.55583   0.56423  -0.61163
O          O       0.46329   0.69478   0.52407  -0.55007
O          O       0.47189   0.94433   0.06021  -0.61282
O          O       0.50087   0.79923   0.02261  -0.54961
O          O       0.45571   0.05998   0.94244  -0.61100
O          O       0.50039   0.20562   0.97758  -0.54591

