data_crystal

_audit_creation_method 'AiiDA-DDEC plugin'

_cell_length_a        11.87098
_cell_length_b        11.87526
_cell_length_c        19.73731

_cell_angle_alpha     89.81177
_cell_angle_beta     90.16744
_cell_angle_gamma     117.00645

_symmetry_space_group_name_Hall 'P 1'
_symmetry_space_group_name_H-M  'P 1'

loop_
_symmetry_equiv_pos_as_xyz
 'x,y,z'

loop_
_atom_site_label
_atom_site_type_symbol
_atom_site_fract_x
_atom_site_fract_y
_atom_site_fract_z
_atom_site_charge
Cd         Cd      0.41180   0.02187   0.16367   0.97776
Cd         Cd      0.02197   0.41210   0.83638   0.97779
Cd         Cd      0.02222   0.41156   0.66428   0.98032
Cd         Cd      0.41108   0.02271   0.33583   0.97941
Cd         Cd      0.07901   0.81617   0.25057   0.93327
Cd         Cd      0.81642   0.07949   0.74949   0.93242
H          H       0.94549   0.64765   0.04108   0.12341
H          H       0.89573   0.49536   0.94450   0.09655
H          H       0.26137   0.53721   0.94148   0.09744
H          H       0.32443   0.68643   0.04044   0.12603
H          H       0.90105   0.60376   0.14548   0.08197
H          H       0.68815   0.41323   0.14047   0.11918
H          H       0.93036   0.89994   0.35509   0.09720
H          H       0.74005   0.94119   0.35883   0.12698
H          H       0.64766   0.94560   0.95889   0.12353
H          H       0.49520   0.89581   0.05553   0.10098
H          H       0.53716   0.26134   0.05848   0.09767
H          H       0.68654   0.32441   0.95946   0.12644
H          H       0.60426   0.90146   0.85459   0.08177
H          H       0.41366   0.68861   0.85970   0.11933
H          H       0.90018   0.93093   0.64492   0.09711
H          H       0.94068   0.74026   0.64121   0.12684
H          H       0.64845   0.94686   0.54058   0.12330
H          H       0.49546   0.89699   0.44423   0.09527
H          H       0.53605   0.26223   0.44077   0.09796
H          H       0.68666   0.32562   0.53933   0.12575
H          H       0.60271   0.90016   0.64533   0.08238
H          H       0.41203   0.68671   0.64164   0.11836
H          H       0.89788   0.92894   0.85529   0.09748
H          H       0.93805   0.73803   0.85933   0.12687
H          H       0.94697   0.64844   0.45903   0.12327
H          H       0.89665   0.49552   0.55559   0.09546
H          H       0.26206   0.53627   0.55947   0.09852
H          H       0.32581   0.68661   0.46076   0.12587
H          H       0.89965   0.60211   0.35475   0.08621
H          H       0.68604   0.41173   0.35853   0.11884
H          H       0.92838   0.89756   0.14473   0.09802
H          H       0.73765   0.93821   0.14074   0.12655
H          H       0.26398   0.07017   0.24908   0.37808
H          H       0.07039   0.26457   0.75099   0.37933
C          C       0.17497   0.76985   0.10704   0.55494
C          C       0.13964   0.67908   0.04919   0.00005
C          C       0.01708   0.62344   0.02131  -0.15983
C          C       0.98908   0.53988   0.96764   0.07587
C          C       0.19420   0.56246   0.96624   0.06410
C          C       0.22885   0.64592   0.02023  -0.15190
C          C       0.84946   0.55818   0.19118   0.06201
C          C       0.73163   0.45366   0.18879  -0.14584
C          C       0.88520   0.91003   0.30894   0.05901
C          C       0.78022   0.93218   0.31090  -0.14480
C          C       0.76988   0.17502   0.89295   0.55447
C          C       0.67904   0.13966   0.95079   0.00022
C          C       0.62337   0.01712   0.97867  -0.16040
C          C       0.53974   0.98912   0.03235   0.07272
C          C       0.56238   0.19420   0.03371   0.06380
C          C       0.64591   0.22885   0.97971  -0.15177
C          C       0.55862   0.84984   0.80892   0.06246
C          C       0.45398   0.73208   0.81133  -0.14672
C          C       0.91010   0.88567   0.69108   0.06014
C          C       0.93191   0.78053   0.68914  -0.14634
C          C       0.77028   0.17527   0.60667   0.55015
C          C       0.67980   0.14100   0.54861  -0.00022
C          C       0.62406   0.01850   0.52075  -0.15966
C          C       0.54012   0.99043   0.46709   0.07505
C          C       0.56212   0.19528   0.46542   0.06182
C          C       0.64612   0.23000   0.51938  -0.15237
C          C       0.55786   0.84917   0.69132   0.06215
C          C       0.45330   0.73129   0.68959  -0.14563
C          C       0.90874   0.88453   0.80922   0.05927
C          C       0.93042   0.77933   0.81135  -0.14644
C          C       0.17544   0.77037   0.39332   0.55028
C          C       0.14115   0.67981   0.45135  -0.00019
C          C       0.01848   0.62407   0.47907  -0.15951
C          C       0.99020   0.54024   0.53280   0.07488
C          C       0.19519   0.56229   0.53470   0.06173
C          C       0.23011   0.64618   0.48066  -0.15301
C          C       0.84864   0.55733   0.30878   0.06002
C          C       0.73062   0.45293   0.31054  -0.14705
C          C       0.88405   0.90858   0.19080   0.05766
C          C       0.77897   0.93052   0.18870  -0.14522
C          C       0.66934   0.39794   0.24953   0.00525
C          C       0.54627   0.28008   0.24916   0.56800
C          C       0.72503   0.94336   0.24974   0.00517
C          C       0.61077   0.96536   0.24929   0.56579
C          C       0.39806   0.67003   0.75058   0.00523
C          C       0.28000   0.54706   0.75080   0.56849
C          C       0.94306   0.72530   0.75031   0.00659
C          C       0.96494   0.61101   0.75066   0.56572
N          N       0.07571   0.50904   0.93974  -0.25777
N          N       0.50890   0.07573   0.06023  -0.25800
N          N       0.50867   0.07685   0.43896  -0.26114
N          N       0.07664   0.50896   0.56109  -0.26090
N          N       0.90935   0.61005   0.25014  -0.26640
N          N       0.93804   0.89906   0.24993  -0.27513
N          N       0.61051   0.90979   0.74995  -0.26518
N          N       0.89932   0.93858   0.75009  -0.27588
O          O       0.08674   0.78812   0.13455  -0.58474
O          O       0.29109   0.82176   0.12472  -0.57425
O          O       0.50233   0.23321   0.19096  -0.59311
O          O       0.56729   0.97495   0.30681  -0.57391
O          O       0.78820   0.08683   0.86547  -0.58418
O          O       0.82177   0.29111   0.87525  -0.57360
O          O       0.23326   0.50265   0.80899  -0.59366
O          O       0.97442   0.56780   0.69307  -0.57391
O          O       0.78923   0.08637   0.63323  -0.58432
O          O       0.82104   0.29044   0.62599  -0.57630
O          O       0.23428   0.49777   0.69329  -0.59412
O          O       0.97103   0.56636   0.80861  -0.57154
O          O       0.08644   0.78922   0.36679  -0.58529
O          O       0.29066   0.82125   0.37398  -0.57569
O          O       0.49675   0.23454   0.30669  -0.59380
O          O       0.56638   0.97137   0.19127  -0.57103
O          O       0.27216   0.99207   0.24931  -0.85586
O          O       0.99227   0.27273   0.75073  -0.85733

