data_crystal

_audit_creation_method 'AiiDA-DDEC plugin'

_cell_length_a         5.96382
_cell_length_b        12.89527
_cell_length_c        23.18274

_cell_angle_alpha     90.17509
_cell_angle_beta     89.74686
_cell_angle_gamma     95.61217

_symmetry_space_group_name_Hall 'P 1'
_symmetry_space_group_name_H-M  'P 1'

loop_
_symmetry_equiv_pos_as_xyz
 'x,y,z'

loop_
_atom_site_label
_atom_site_type_symbol
_atom_site_fract_x
_atom_site_fract_y
_atom_site_fract_z
_atom_site_charge
Gd         Gd      0.01755   0.11789   0.31593   1.94898
Gd         Gd      0.48185   0.38296   0.81824   1.95595
Gd         Gd      0.51813   0.61702   0.18178   1.95631
Gd         Gd      0.98244   0.88212   0.68409   1.94894
Cu         Cu     -0.00047  -0.00025   0.00017   0.80803
Cu         Cu      0.50004   0.50002   0.50002   0.80955
H          H       0.30668   0.34869   0.60312   0.13313
H          H       0.51961   0.87650   0.82213   0.10223
H          H       0.01307   0.37771   0.67839   0.10160
H          H       0.48103   0.12353   0.17794   0.10188
H          H       0.18845   0.15135   0.10292   0.13327
H          H       0.98684   0.62231   0.32162   0.10181
H          H       0.46416   0.73471   0.65822   0.11804
H          H       0.69336   0.65136   0.39691   0.13326
H          H       0.88318   0.92833   0.19711   0.09347
H          H       0.81164   0.84865   0.89731   0.13282
H          H       0.53582   0.26528   0.34178   0.11794
H          H       0.03722   0.76545   0.15736   0.11665
H          H       0.61843   0.57183   0.69688   0.09318
H          H       0.38156   0.42817   0.30312   0.09324
H          H       0.11682   0.07167   0.80290   0.09337
H          H       0.96278   0.23454   0.84265   0.11644
C          C       0.67072   0.82665   0.09503   0.62540
C          C       0.44962   0.06797   0.14278   0.06493
C          C       0.55063   0.93203   0.85732   0.06516
C          C       0.63369   0.06771   0.94460   0.03934
C          C       0.28550   0.08420   0.10184   0.07310
C          C       0.96988   0.58358   0.59810   0.06426
C          C       0.98177   0.50991   0.19239   0.64649
C          C       0.82901   0.67496   0.59557   0.62340
C          C       0.59121   0.17426   0.73984   0.07450
C          C       0.47180   0.08245   0.90271   0.06358
C          C       0.32924   0.17337   0.90501   0.62540
C          C       0.78942   0.58386   0.39785   0.07365
C          C       0.88366   0.19240   0.80610   0.09295
C          C       0.71436   0.91572   0.89836   0.07255
C          C       0.10130   0.27757   0.20963   0.56189
C          C       0.65823   0.07666   0.72448   0.06239
C          C       0.89869   0.72244   0.79038   0.56196
C          C       0.13323   0.56831   0.55631   0.03482
C          C       0.53453   0.39957   0.28549   0.09050
C          C       0.18205   0.64027   0.50549   0.53141
C          C       0.15784   0.57517   0.77550   0.06554
C          C       0.46545   0.60043   0.71451   0.09055
C          C       0.59632   0.77339   0.28990   0.56073
C          C       0.03010   0.41644   0.40190   0.06431
C          C       0.01820   0.49008   0.80760   0.64635
C          C       0.38358   0.69178   0.69433   0.09144
C          C       0.67967   0.13983   0.99569   0.52879
C          C       0.51798   0.99172   0.69244   0.64335
C          C       0.34177   0.92334   0.27552   0.06249
C          C       0.17098   0.32505   0.40444   0.62416
C          C       0.61639   0.30822   0.30567   0.09156
C          C       0.32034   0.86018   0.00440   0.52890
C          C       0.04607   0.43316   0.64332   0.06555
C          C       0.03516   0.89913   0.21449   0.09286
C          C       0.96484   0.10087   0.78551   0.09281
C          C       0.36612   0.93224   0.05555   0.03799
C          C       0.21059   0.41617   0.60217   0.07349
C          C       0.08937   0.67225   0.76041   0.07262
C          C       0.11634   0.80759   0.19391   0.09288
C          C       0.91059   0.32775   0.23958   0.07269
C          C       0.86678   0.43171   0.44370   0.03478
C          C       0.95389   0.56687   0.35669   0.06519
C          C       0.81797   0.35974   0.49452   0.53157
C          C       0.52823   0.91756   0.09739   0.06402
C          C       0.48202   0.00828   0.30756   0.64321
C          C       0.40368   0.22660   0.71010   0.56049
C          C       0.40879   0.82574   0.26017   0.07444
C          C       0.84212   0.42483   0.22450   0.06536
N          N       0.20449   0.72970   0.71939  -0.30829
N          N       0.85260   0.04450   0.74414  -0.29846
N          N       0.64598   0.45607   0.24395  -0.29657
N          N       0.75607   0.98575   0.94087  -0.20891
N          N       0.56732   0.98420   0.14203  -0.24923
N          N       0.29463   0.76936   0.21863  -0.30589
N          N       0.70536   0.23064   0.78138  -0.30579
N          N       0.92915   0.51721   0.64266  -0.24910
N          N       0.74535   0.51388   0.44016  -0.20717
N          N       0.07081   0.48281   0.35734  -0.24930
N          N       0.35400   0.54393   0.75605  -0.29677
N          N       0.43292   0.01580   0.85806  -0.24878
N          N       0.24346   0.01411   0.05936  -0.20805
N          N       0.79548   0.27030   0.28061  -0.30848
N          N       0.14739   0.95550   0.25587  -0.29839
N          N       0.25467   0.48615   0.55986  -0.20740
O          O       0.62357   0.92543   0.66605  -0.62316
O          O       0.43159   0.78435  -0.00044  -0.46153
O          O       0.92125   0.76049   0.61996  -0.72610
O          O       0.66874   0.80430   0.33705  -0.44449
O          O       0.81928   0.68767   0.83618  -0.45309
O          O       0.66081   0.38628   0.52908  -0.55068
O          O       0.87535   0.57164   0.16306  -0.62596
O          O       0.84094   0.80467   0.76314  -0.70625
O          O       0.63492   0.66177   0.57726  -0.50114
O          O       0.93228   0.28535   0.50017  -0.46220
O          O       0.69314   0.01593   0.30010  -0.63747
O          O       0.33127   0.19570   0.66295  -0.44422
O          O       0.37642   0.07457   0.33395  -0.62317
O          O       0.86579   0.84026   0.07694  -0.50400
O          O       0.13413   0.15978   0.92305  -0.50339
O          O       0.57892   0.74113   0.11928  -0.72864
O          O       0.30686   0.98408   0.69990  -0.63743
O          O       0.36508   0.33825   0.42274  -0.50161
O          O       0.15906   0.19534   0.23687  -0.70628
O          O       0.33920   0.61372   0.47093  -0.55055
O          O       0.42115   0.25890   0.88077  -0.72902
O          O       0.12464   0.42837   0.83694  -0.62608
O          O       0.65929   0.69367   0.26071  -0.70683
O          O       0.56861   0.21573   0.00047  -0.46153
O          O       0.18072   0.31233   0.16383  -0.45294
O          O       0.80960   0.47695   0.79731  -0.63985
O          O       0.07872   0.23951   0.38006  -0.72645
O          O       0.16985   0.88870   0.96876  -0.55337
O          O       0.83024   0.11131   0.03131  -0.55326
O          O       0.06773   0.71467   0.49983  -0.46196
O          O       0.34070   0.30632   0.73930  -0.70658
O          O       0.19037   0.52304   0.20269  -0.64015

