data_crystal

_audit_creation_method 'AiiDA-DDEC plugin'

_cell_length_a        12.29038
_cell_length_b        12.74989
_cell_length_c        19.60238

_cell_angle_alpha     89.96336
_cell_angle_beta     93.12349
_cell_angle_gamma     90.14967

_symmetry_space_group_name_Hall 'P 1'
_symmetry_space_group_name_H-M  'P 1'

loop_
_symmetry_equiv_pos_as_xyz
 'x,y,z'

loop_
_atom_site_label
_atom_site_type_symbol
_atom_site_fract_x
_atom_site_fract_y
_atom_site_fract_z
_atom_site_charge
Nb         Nb      0.11751   0.88831   0.07431   0.76004
Nb         Nb      0.14042   0.13874   0.00052   0.73507
Nb         Nb      0.93025   0.08239   0.10034   0.73596
Nb         Nb      0.38152   0.38802   0.42572   0.76062
Nb         Nb      0.36068   0.63857   0.49951   0.73454
Nb         Nb      0.57001   0.58206   0.39967   0.73436
Nb         Nb      0.88227   0.11202   0.92561   0.75978
Nb         Nb      0.85952   0.86130  -0.00065   0.73557
Nb         Nb      0.06965   0.91786   0.89954   0.73616
Nb         Nb      0.61843   0.61171   0.57426   0.76001
Nb         Nb      0.63966   0.36124   0.50029   0.73543
Nb         Nb      0.43007   0.41776   0.60032   0.73477
Cu         Cu      0.53033   0.74377   0.14200   0.45250
Cu         Cu      0.96761   0.24418   0.35807   0.45347
Cu         Cu      0.46995   0.25673   0.85826   0.45204
Cu         Cu      0.03222   0.75578   0.64173   0.45337
H          H       0.58384   0.12871   0.12120   0.19763
H          H       0.47444   0.12496   0.05641   0.18286
H          H       0.61164   0.09010   0.03667   0.17867
H          H       0.91673   0.62787   0.37865   0.19804
H          H       0.02662   0.62398   0.44309   0.18461
H          H       0.88924   0.58991   0.46339   0.17915
H          H       0.41596   0.87193   0.87873   0.19788
H          H       0.52560   0.87561   0.94346   0.18341
H          H       0.38842   0.91072   0.96334   0.17921
H          H       0.08384   0.37211   0.62127   0.19778
H          H       0.97376   0.37576   0.55690   0.18371
H          H       0.11107   0.41006   0.53646   0.17896
C          C       0.29663   0.74927   0.16321   0.28375
C          C       0.34394   0.29760   0.97713   0.27832
C          C       0.83459   0.18461   0.23740   0.26176
C          C       0.52906   0.97919   0.09266   0.45364
C          C       0.55036   0.08708   0.07557  -0.44057
C          C       0.20161   0.24971   0.33656   0.28471
C          C       0.15883   0.79791   0.52310   0.27697
C          C       0.66465   0.68436   0.26220   0.26260
C          C       0.97026   0.47842   0.40751   0.45422
C          C       0.95015   0.58641   0.42430  -0.44272
C          C       0.70332   0.25114   0.83658   0.28303
C          C       0.65607   0.70255   0.02298   0.27812
C          C       0.16531   0.81548   0.76255   0.26189
C          C       0.47104   0.02147   0.90726   0.45334
C          C       0.44963   0.91355   0.92434  -0.44197
C          C       0.79826   0.75006   0.66343   0.28509
C          C       0.84163   0.20198   0.47688   0.27762
C          C       0.33534   0.31576   0.73788   0.26262
C          C       0.02990   0.52153   0.59240   0.45437
C          C       0.05022   0.41351   0.57562  -0.44146
S          S       0.39250   0.68067   0.20335  -0.11005
S          S       0.44799   0.36396   0.95067  -0.13064
S          S       0.79274   0.23926   0.30648  -0.11216
S          S       0.10500   0.18139   0.29665  -0.11196
S          S       0.05535   0.86410   0.54988  -0.13048
S          S       0.70572   0.74054   0.19332  -0.11238
S          S       0.60743   0.31989   0.79654  -0.10988
S          S       0.55196   0.63649   0.04967  -0.13086
S          S       0.20701   0.76077   0.69345  -0.11183
S          S       0.89485   0.81860   0.70320  -0.11197
S          S       0.94504   0.13580   0.44997  -0.13042
S          S       0.29449   0.26014   0.80700  -0.11219
N          N       0.22542   0.79748   0.13457  -0.37860
N          N       0.26904   0.24673   0.99409  -0.37689
N          N       0.86427   0.14732   0.18613  -0.38274
N          N       0.51222   0.89175   0.10566  -0.42294
N          N       0.27354   0.29746   0.36508  -0.37964
N          N       0.23314   0.74701   0.50573  -0.37448
N          N       0.63541   0.64628   0.31340  -0.38297
N          N       0.98654   0.39088   0.39483  -0.42291
N          N       0.77449   0.20281   0.86519  -0.37855
N          N       0.73101   0.75318   0.00580  -0.37655
N          N       0.13569   0.85283   0.81381  -0.38267
N          N       0.48797   0.10896   0.89441  -0.42196
N          N       0.72636   0.70217   0.63500  -0.37972
N          N       0.76730   0.25287   0.49425  -0.37582
N          N       0.36452   0.35360   0.68658  -0.38312
N          N       0.01343   0.60903   0.60507  -0.42306
Cl         Cl      0.97593   0.74718   0.07726  -0.34747
Cl         Cl      0.19435   0.80227   0.97218  -0.36180
Cl         Cl      0.26441   0.02631   0.07529  -0.38446
Cl         Cl      0.04656   0.96942   0.17932  -0.35170
Cl         Cl      0.21486   0.05491   0.89732  -0.37103
Cl         Cl      0.07203   0.22433   0.10427  -0.34916
Cl         Cl      0.52237   0.24685   0.42277  -0.34754
Cl         Cl      0.30448   0.30199   0.52796  -0.36251
Cl         Cl      0.23552   0.52619   0.42505  -0.38569
Cl         Cl      0.45279   0.46958   0.32076  -0.35076
Cl         Cl      0.28575   0.55511   0.60288  -0.37150
Cl         Cl      0.42911   0.72425   0.39570  -0.34851
Cl         Cl      0.02411   0.25299   0.92268  -0.34724
Cl         Cl      0.80558   0.19795   0.02775  -0.36137
Cl         Cl      0.73555   0.97388   0.92472  -0.38494
Cl         Cl      0.95329   0.03067   0.82061  -0.35179
Cl         Cl      0.78507   0.94503   0.10257  -0.37114
Cl         Cl      0.92789   0.77571   0.89556  -0.34946
Cl         Cl      0.47780   0.75297   0.57704  -0.34664
Cl         Cl      0.69558   0.69787   0.47200  -0.36227
Cl         Cl      0.76466   0.47373   0.57472  -0.38588
Cl         Cl      0.54711   0.53040   0.67919  -0.35029
Cl         Cl      0.71431   0.44482   0.39695  -0.37120
Cl         Cl      0.57095   0.27562   0.60413  -0.34912

