data_crystal

_audit_creation_method 'AiiDA-DDEC plugin'

_cell_length_a        11.22905
_cell_length_b        10.92929
_cell_length_c        18.32743

_cell_angle_alpha     106.01390
_cell_angle_beta     90.16059
_cell_angle_gamma     120.76570

_symmetry_space_group_name_Hall 'P 1'
_symmetry_space_group_name_H-M  'P 1'

loop_
_symmetry_equiv_pos_as_xyz
 'x,y,z'

loop_
_atom_site_label
_atom_site_type_symbol
_atom_site_fract_x
_atom_site_fract_y
_atom_site_fract_z
_atom_site_charge
Er         Er      0.06028   0.99365   0.89992   2.13568
Er         Er      0.06948   0.00661   0.60141   2.13869
Er         Er      0.93970   0.00623   0.10356   2.14005
Er         Er      0.93028   0.99369   0.40009   2.13733
H          H       0.34701   0.37238   0.21960   0.12310
H          H       0.57481   0.62208   0.28084   0.12178
H          H       0.48553   0.34603   0.00078   0.12253
H          H       0.70864   0.59676   0.06075   0.11364
H          H       0.96101   0.67156   0.10402   0.12241
H          H       0.07933   0.56794   0.88348   0.11770
H          H       0.97530   0.62885   0.28124   0.12339
H          H       0.95293   0.37878   0.22004   0.12168
H          H       0.14076   0.65409   0.50009   0.12231
H          H       0.11158   0.40249   0.44021   0.11392
H          H       0.28873   0.32920   0.39649   0.12282
H          H       0.51010   0.43296   0.61785   0.11909
H          H       0.65285   0.62825   0.78216   0.12443
H          H       0.42552   0.37858   0.72040   0.12198
H          H       0.51267   0.65307   0.00049   0.12212
H          H       0.29009   0.40185   0.94009   0.11454
H          H       0.03835   0.32781   0.89696   0.12256
H          H       0.92009   0.43133   0.11745   0.11738
H          H       0.02510   0.37112   0.71878   0.12334
H          H       0.04717   0.62093   0.78050   0.12199
H          H       0.85951   0.34736   0.50038   0.12283
H          H       0.88895   0.59896   0.56075   0.11292
H          H       0.71118   0.67071   0.60358   0.12256
H          H       0.48980   0.56695   0.38226   0.11893
C          C       0.42802   0.42204   0.18605  -0.08815
C          C       0.55271   0.55974   0.21972  -0.09296
C          C       0.04176   0.77502   0.98280   0.64699
C          C       0.50629   0.40704   0.06190  -0.08631
C          C       0.65251   0.62390   0.17408  -0.04856
C          C       0.63004   0.54608   0.09528  -0.09373
C          C       0.97758   0.59574   0.05899  -0.09442
C          C       0.40356   0.34650   0.10671  -0.03791
C          C       0.04442   0.53716   0.93447  -0.09179
C          C       0.78019   0.77785   0.20939   0.67612
C          C       0.26367   0.20835   0.06885   0.66857
C          C       0.02245   0.63455   0.99275  -0.02829
C          C       0.00665   0.57889   0.31485  -0.08807
C          C       0.99321   0.44079   0.28118  -0.09203
C          C       0.26545   0.22796   0.51894   0.64510
C          C       0.10014   0.59315   0.43900  -0.08518
C          C       0.02830   0.37606   0.32699  -0.04779
C          C       0.08396   0.45366   0.40569  -0.09616
C          C       0.38141   0.40449   0.44147  -0.09583
C          C       0.05817   0.65434   0.39421  -0.03599
C          C       0.50668   0.46323   0.56650  -0.09293
C          C       0.00139   0.22181   0.29235   0.67887
C          C       0.05771   0.79328   0.43248   0.66584
C          C       0.38707   0.36671   0.50825  -0.02762
C          C       0.57164   0.57811   0.81554  -0.08985
C          C       0.44713   0.44031   0.78158  -0.09316
C          C       0.95830   0.22458   0.01804   0.64735
C          C       0.49240   0.59208   0.93940  -0.08610
C          C       0.34725   0.37539   0.82706  -0.04859
C          C       0.36899   0.45289   0.90578  -0.09814
C          C       0.02175   0.40365   0.94195  -0.09749
C          C       0.59575   0.65301   0.89500  -0.03626
C          C       0.95491   0.46218   0.06646  -0.09412
C          C       0.22016   0.22118   0.79164   0.67744
C          C       0.73590   0.79056   0.93340   0.66671
C          C       0.97699   0.36490   0.00822  -0.02610
C          C       0.99388   0.42149   0.68539  -0.08736
C          C       0.00714   0.55939   0.71933  -0.09298
C          C       0.73445   0.77186   0.48130   0.64504
C          C       0.90040   0.40812   0.56148  -0.08564
C          C       0.97198   0.62462   0.67391  -0.04615
C          C       0.91668   0.54763   0.59511  -0.09770
C          C       0.61853   0.59528   0.55860  -0.09588
C          C       0.94228   0.34650   0.60605  -0.03784
C          C       0.49326   0.53657   0.43357  -0.09320
C          C      -0.00273   0.77815   0.70956   0.67552
C          C       0.94218   0.20735   0.56763   0.66743
C          C       0.61292   0.63302   0.49184  -0.02606
O          O       0.24511   0.14180   0.99677  -0.69177
O          O       0.08941   0.81076   0.92399  -0.64529
O          O       0.00549   0.85259   0.03266  -0.74926
O          O       0.80040   0.84166   0.28140  -0.67995
O          O       0.16853   0.16853   0.11079  -0.69991
O          O       0.86181   0.83678   0.16410  -0.72262
O          O       0.10740   0.85964   0.50457  -0.69295
O          O       0.27797   0.19307   0.57811  -0.64517
O          O       0.15120   0.15117   0.46940  -0.74648
O          O       0.96132   0.15981   0.21990  -0.68568
O          O       0.00235   0.83436   0.39116  -0.69638
O          O       0.01998   0.16090   0.33790  -0.72024
O          O       0.75473   0.85585   0.00576  -0.69331
O          O       0.91055   0.18795   0.07661  -0.64630
O          O       0.99535   0.14837   0.96786  -0.74761
O          O       0.19913   0.16013   0.71924  -0.68224
O          O       0.83077   0.83087   0.89139  -0.69627
O          O       0.13996   0.15931   0.83657  -0.71976
O          O       0.89214   0.14138   0.49557  -0.69265
O          O       0.72162   0.80679   0.42220  -0.64650
O          O       0.84894   0.84890   0.53073  -0.74809
O          O       0.03285   0.83720   0.78214  -0.67689
O          O      -0.00281   0.16525   0.60846  -0.69889
O          O       0.98101   0.84116   0.66438  -0.72215

