data_crystal

_audit_creation_method 'AiiDA-DDEC plugin'

_cell_length_a        10.99714
_cell_length_b        12.70703
_cell_length_c        15.86119

_cell_angle_alpha     101.53126
_cell_angle_beta     105.73291
_cell_angle_gamma     95.39065

_symmetry_space_group_name_Hall 'P 1'
_symmetry_space_group_name_H-M  'P 1'

loop_
_symmetry_equiv_pos_as_xyz
 'x,y,z'

loop_
_atom_site_label
_atom_site_type_symbol
_atom_site_fract_x
_atom_site_fract_y
_atom_site_fract_z
_atom_site_charge
K          K       0.78165   0.01913   0.44218   0.93054
K          K       0.26998   0.48908   0.93612   0.93127
K          K       0.21836   0.98087   0.55782   0.93056
K          K       0.73003   0.51092   0.06388   0.93129
Gd         Gd      0.05107   0.23038   0.62870   2.02072
Gd         Gd      0.49237   0.73154   0.11721   2.00805
Gd         Gd      0.94893   0.76962   0.37131   2.02070
Gd         Gd      0.50763   0.26846   0.88280   2.00802
H          H       0.92229   0.02858   0.81416   0.13680
H          H       0.88605   0.65047   0.63797   0.13076
H          H       0.85303   0.68380   0.79109   0.13747
H          H       0.09000   0.81943   0.92575   0.14332
H          H       0.07144   0.73369   0.17266   0.13522
H          H       0.74836   0.84187   0.00831   0.14842
H          H       0.43713   0.52410   0.31516   0.13107
H          H       0.46827   0.15317   0.15707   0.13064
H          H       0.43750   0.18482   0.31086   0.13445
H          H       0.65744   0.35001   0.44709   0.14465
H          H       0.64593   0.24476   0.68778   0.13754
H          H       0.30218   0.31309   0.51239   0.14338
H          H       0.07771   0.97142   0.18584   0.13676
H          H       0.11396   0.34953   0.36203   0.13074
H          H       0.14697   0.31620   0.20891   0.13744
H          H       0.91001   0.18057   0.07426   0.14340
H          H       0.92857   0.26631   0.82734   0.13496
H          H       0.25165   0.15813   0.99169   0.14849
H          H       0.56287   0.47590   0.68484   0.13113
H          H       0.53174   0.84683   0.84293   0.13061
H          H       0.56250   0.81518   0.68914   0.13441
H          H       0.34256   0.64999   0.55291   0.14470
H          H       0.35407   0.75524   0.31223   0.13745
H          H       0.69782   0.68691   0.48761   0.14349
C          C       0.88578   0.85843   0.80998   0.26668
C          C       0.91608   0.94645   0.77515  -0.21839
C          C       0.93772   0.92750   0.69102   0.00841
C          C       0.92591   0.82014   0.64095  -0.09214
C          C       0.89657   0.73285   0.67802  -0.05874
C          C       0.87759   0.75110   0.76272  -0.21177
C          C       0.97637   0.02576   0.65955   0.61553
C          C       0.93700   0.79951   0.54808   0.58361
C          C       0.91341   0.83624   0.95979   0.25721
C          C       0.03695   0.81018   0.97327  -0.21944
C          C       0.09431   0.77539   0.05102   0.00963
C          C       0.02697   0.76111   0.11237  -0.15138
C          C       0.90059   0.78236   0.09514  -0.04986
C          C       0.84477   0.82233   0.01985  -0.20410
C          C       0.23083   0.75782   0.06903   0.59791
C          C       0.82076   0.75988   0.15458   0.61965
C          C       0.43745   0.35708   0.32139   0.26634
C          C       0.44507   0.44353   0.28003  -0.22134
C          C       0.46348   0.42577   0.19494   0.00687
C          C       0.47233   0.32036   0.15023  -0.08840
C          C       0.46354   0.23437   0.19311  -0.05951
C          C       0.44679   0.25174   0.27853  -0.21550
C          C       0.47595   0.52476   0.15773   0.61244
C          C       0.48701   0.29955   0.05818   0.57110
C          C       0.47403   0.33797   0.47329   0.24838
C          C       0.60404   0.33061   0.49201  -0.21534
C          C       0.66588   0.29859   0.57024   0.00038
C          C       0.59790   0.27063   0.62750  -0.13361
C          C       0.46561   0.27253   0.60466  -0.04116
C          C       0.40376   0.30809   0.52823  -0.20269
C          C       0.80390   0.28740   0.58746   0.59178
C          C       0.38842   0.23259   0.66005   0.63829
C          C       0.11423   0.14157   0.19002   0.26660
C          C       0.08392   0.05355   0.22485  -0.21827
C          C       0.06229   0.07250   0.30898   0.00825
C          C       0.07409   0.17986   0.35905  -0.09206
C          C       0.10344   0.26715   0.32199  -0.05869
C          C       0.12242   0.24890   0.23728  -0.21185
C          C       0.02364   0.97424   0.34045   0.61556
C          C       0.06300   0.20049   0.45192   0.58347
C          C       0.08659   0.16376   0.04021   0.25731
C          C       0.96305   0.18982   0.02673  -0.21955
C          C       0.90569   0.22461   0.94898   0.00954
C          C       0.97303   0.23889   0.88763  -0.15122
C          C       0.09942   0.21764   0.90487  -0.05001
C          C       0.15523   0.17767   0.98015  -0.20396
C          C       0.76917   0.24218   0.93097   0.59810
C          C       0.17924   0.24012   0.84542   0.61981
C          C       0.56256   0.64292   0.67861   0.26636
C          C       0.55493   0.55647   0.71997  -0.22146
C          C       0.53652   0.57423   0.80506   0.00693
C          C       0.52767   0.67964   0.84977  -0.08837
C          C       0.53646   0.76563   0.80690  -0.05949
C          C       0.55322   0.74826   0.72148  -0.21561
C          C       0.52405   0.47524   0.84227   0.61221
C          C       0.51299   0.70045   0.94182   0.57090
C          C       0.52598   0.66203   0.52671   0.24832
C          C       0.39596   0.66939   0.50799  -0.21536
C          C       0.33412   0.70141   0.42976   0.00027
C          C       0.40210   0.72937   0.37250  -0.13360
C          C       0.53439   0.72747   0.39535  -0.04121
C          C       0.59624   0.69191   0.47177  -0.20263
C          C       0.19611   0.71260   0.41254   0.59174
C          C       0.61158   0.76740   0.33996   0.63848
O          O       0.85554   0.88295   0.89039  -0.20621
O          O       0.89115   0.07967   0.62542  -0.67328
O          O       0.09524   0.05983   0.67506  -0.66633
O          O       0.96099   0.88296   0.51606  -0.71494
O          O       0.91974   0.70311   0.50029  -0.59675
O          O       0.30952   0.80445   0.14616  -0.61892
O          O       0.26643   0.69933   0.00736  -0.68679
O          O       0.71047   0.78706   0.13817  -0.64697
O          O       0.86687   0.70875   0.21529  -0.70908
O          O       0.41058   0.38090   0.40286  -0.20621
O          O       0.58685   0.57751   0.17137  -0.66817
O          O       0.37480   0.56084   0.12108  -0.67094
O          O       0.48927   0.38092   0.02008  -0.71571
O          O       0.49568   0.20497   0.01734  -0.59558
O          O       0.88373   0.32345   0.66604  -0.62625
O          O       0.83778   0.23779   0.52105  -0.67877
O          O       0.44852   0.20031   0.72864  -0.67743
O          O       0.26774   0.22763   0.63329  -0.69678
O          O       0.14446   0.11705   0.10961  -0.20610
O          O       0.10886   0.92033   0.37459  -0.67311
O          O       0.90477   0.94017   0.32495  -0.66649
O          O       0.03901   0.11704   0.48394  -0.71481
O          O       0.08027   0.29689   0.49971  -0.59670
O          O       0.69048   0.19555   0.85384  -0.61913
O          O       0.73358   0.30067   0.99264  -0.68677
O          O       0.28953   0.21294   0.86183  -0.64694
O          O       0.13314   0.29125   0.78472  -0.70929
O          O       0.58943   0.61910   0.59714  -0.20601
O          O       0.41315   0.42249   0.82863  -0.66819
O          O       0.62520   0.43916   0.87892  -0.67069
O          O       0.51073   0.61908   0.97992  -0.71546
O          O       0.50432   0.79503   0.98266  -0.59559
O          O       0.11627   0.67655   0.33396  -0.62639
O          O       0.16222   0.76221   0.47895  -0.67861
O          O       0.55148   0.79969   0.27136  -0.67772
O          O       0.73226   0.77237   0.36671  -0.69671

