data_crystal

_audit_creation_method 'AiiDA-DDEC plugin'

_cell_length_a        13.46428
_cell_length_b        15.01279
_cell_length_c        15.98372

_cell_angle_alpha     117.78606
_cell_angle_beta     93.59708
_cell_angle_gamma     89.93938

_symmetry_space_group_name_Hall 'P 1'
_symmetry_space_group_name_H-M  'P 1'

loop_
_symmetry_equiv_pos_as_xyz
 'x,y,z'

loop_
_atom_site_label
_atom_site_type_symbol
_atom_site_fract_x
_atom_site_fract_y
_atom_site_fract_z
_atom_site_charge
Gd         Gd      0.51581   0.02478   0.62570   2.02090
Gd         Gd      0.98335   0.40005   0.37447   2.01967
Gd         Gd      0.48418   0.97521   0.37429   2.02092
Gd         Gd      0.01665   0.59994   0.62553   2.01965
H          H       0.08833   0.18212   0.06474   0.12971
H          H       0.02926   0.48687   0.12568   0.11837
H          H       0.07146   0.40099   0.69259   0.14375
H          H       0.21401   0.18996   0.44438   0.13774
H          H       0.09796   0.45622   0.97182   0.11994
H          H       0.26746   0.18287   0.71000   0.12442
H          H       0.15724   0.15116   0.91000   0.12432
H          H       0.40964   0.11813   0.93695   0.12884
H          H       0.47026   0.35976   0.87270   0.11893
H          H       0.42928   0.70911   0.30692   0.14522
H          H       0.28490   0.74500   0.55438   0.13699
H          H       0.40450   0.48409   0.02736   0.11927
H          H       0.23411   0.47329   0.28907   0.12457
H          H       0.34352   0.24322   0.09231   0.12452
H          H       0.91167   0.81788   0.93526   0.12939
H          H       0.97074   0.51313   0.87432   0.11859
H          H       0.92854   0.59900   0.30740   0.14400
H          H       0.78599   0.81003   0.55562   0.13768
H          H       0.90204   0.54377   0.02818   0.12010
H          H       0.73254   0.81712   0.29000   0.12432
H          H       0.84275   0.84883   0.09000   0.12416
H          H       0.59036   0.88186   0.06304   0.12857
H          H       0.52974   0.64023   0.12730   0.11904
H          H       0.57072   0.29088   0.69308   0.14535
H          H       0.71510   0.25499   0.44562   0.13708
H          H       0.59550   0.51590   0.97263   0.11951
H          H       0.76589   0.52670   0.71093   0.12437
H          H       0.65648   0.75677   0.90768   0.12447
C          C       0.32430   0.09863   0.53202   0.65891
C          C       0.00989   0.35136   0.19121   0.56051
C          C       0.05322   0.33519   0.10230  -0.02326
C          C       0.09068   0.24076   0.04304  -0.08563
C          C       0.05699   0.41369   0.07753  -0.07908
C          C       0.08526   0.33942   0.50261   0.63130
C          C       0.13720   0.29929   0.56196  -0.03779
C          C       0.12049   0.33831   0.65836  -0.12753
C          C       0.20149   0.21944   0.51904  -0.07825
C          C       0.25042   0.17929   0.57326  -0.04313
C          C       0.16505   0.29380   0.71076   0.15596
C          C       0.12814   0.30063   0.93124   0.16818
C          C       0.09456   0.39691   0.99255  -0.14819
C          C       0.23142   0.21560   0.66852  -0.12145
C          C       0.12865   0.22376   0.95812  -0.14111
C          C       0.17565   0.56625   0.46689   0.65967
C          C       0.48801   0.16002   0.80835   0.56043
C          C       0.44542   0.23251   0.89756  -0.02279
C          C       0.40832   0.19819   0.95788  -0.08386
C          C       0.44271   0.33550   0.92168  -0.08143
C          C       0.41417   0.83673   0.49613   0.63402
C          C       0.36243   0.73750   0.43711  -0.03790
C          C       0.38006   0.68040   0.34094  -0.12854
C          C       0.29803   0.70023   0.47986  -0.07791
C          C       0.24969   0.60593   0.42576  -0.04344
C          C       0.33616   0.58360   0.28874   0.15512
C          C       0.37331   0.37009   0.06926   0.16664
C          C       0.40670   0.40424   0.00702  -0.14530
C          C       0.26953   0.54741   0.33074  -0.12297
C          C       0.37178   0.26674   0.04317  -0.14151
C          C       0.67570   0.90136   0.46798   0.65914
C          C       0.99011   0.64863   0.80878   0.56036
C          C       0.94678   0.66480   0.89770  -0.02311
C          C       0.90932   0.75923   0.95696  -0.08569
C          C       0.94301   0.58630   0.92247  -0.07902
C          C       0.91474   0.66057   0.49739   0.63116
C          C       0.86279   0.70070   0.43803  -0.03759
C          C       0.87951   0.66168   0.34164  -0.12770
C          C       0.79851   0.78055   0.48096  -0.07821
C          C       0.74958   0.82070   0.42673  -0.04340
C          C       0.83495   0.70619   0.28924   0.15607
C          C       0.87186   0.69936   0.06875   0.16834
C          C       0.90544   0.60309   0.00745  -0.14807
C          C       0.76858   0.78440   0.33147  -0.12147
C          C       0.87135   0.77623   0.04188  -0.14124
C          C       0.82434   0.43374   0.53310   0.65989
C          C       0.51199   0.83997   0.19165   0.56071
C          C       0.55458   0.76748   0.10244  -0.02307
C          C       0.59168   0.80180   0.04211  -0.08385
C          C       0.55729   0.66449   0.07832  -0.08122
C          C       0.58582   0.16326   0.50387   0.63374
C          C       0.63757   0.26249   0.56289  -0.03785
C          C       0.61993   0.31959   0.65905  -0.12835
C          C       0.70197   0.29976   0.52014  -0.07801
C          C       0.75031   0.39406   0.57424  -0.04319
C          C       0.66384   0.41639   0.71126   0.15504
C          C       0.62669   0.62990   0.93073   0.16694
C          C       0.59330   0.59575   0.99298  -0.14520
C          C       0.73046   0.45258   0.66925  -0.12331
C          C       0.62822   0.73325   0.95682  -0.14185
N          N       0.13596   0.32977   0.80487  -0.12069
N          N       0.16034   0.27121   0.83985  -0.12176
N          N       0.36545   0.52565   0.19473  -0.12043
N          N       0.34206   0.43230   0.16082  -0.12124
N          N       0.86404   0.67022   0.19513  -0.12021
N          N       0.83965   0.72879   0.16015  -0.12230
N          N       0.63455   0.47435   0.80527  -0.11971
N          N       0.65794   0.56769   0.83918  -0.12195
O          O       0.36392   0.06707   0.58757  -0.66449
O          O       0.34535   0.06643   0.44572  -0.66841
O          O       0.01477   0.28212   0.21734  -0.63467
O          O       0.97007   0.43557   0.24391  -0.63988
O          O       0.07474   0.28585   0.41321  -0.59293
O          O       0.04976   0.42895   0.54276  -0.76523
O          O       0.13548   0.47998   0.41104  -0.66357
O          O       0.15500   0.61946   0.55341  -0.66874
O          O       0.48508   0.06503   0.78336  -0.63716
O          O       0.52509   0.19156   0.75429  -0.63677
O          O       0.42439   0.87250   0.58564  -0.59662
O          O       0.45003   0.88560   0.45546  -0.76417
O          O       0.63608   0.93292   0.41243  -0.66467
O          O       0.65465   0.93357   0.55427  -0.66850
O          O       0.98522   0.71787   0.78266  -0.63512
O          O       0.02993   0.56442   0.75609  -0.63940
O          O       0.92526   0.71414   0.58679  -0.59320
O          O       0.95024   0.57104   0.45724  -0.76493
O          O       0.86452   0.52001   0.58896  -0.66400
O          O       0.84499   0.38053   0.44659  -0.66860
O          O       0.51492   0.93496   0.21664  -0.63770
O          O       0.47491   0.80843   0.24570  -0.63645
O          O       0.57561   0.12749   0.41436  -0.59657
O          O       0.54997   0.11439   0.54453  -0.76395

