data_crystal

_audit_creation_method 'AiiDA-DDEC plugin'

_cell_length_a        11.58659
_cell_length_b        11.58411
_cell_length_c        12.00645

_cell_angle_alpha     75.49810
_cell_angle_beta     75.43109
_cell_angle_gamma     89.88732

_symmetry_space_group_name_Hall 'P 1'
_symmetry_space_group_name_H-M  'P 1'

loop_
_symmetry_equiv_pos_as_xyz
 'x,y,z'

loop_
_atom_site_label
_atom_site_type_symbol
_atom_site_fract_x
_atom_site_fract_y
_atom_site_fract_z
_atom_site_charge
Cd         Cd      0.67048   0.30653   0.40500   0.91622
Cd         Cd      0.69336   0.32946   0.09517   0.91628
Cd         Cd      0.32952   0.69346   0.59500   0.91625
Cd         Cd      0.30664   0.67053   0.90483   0.91628
H          H       0.43245   0.40381   0.42303   0.29812
H          H       0.44791   0.28461   0.36494   0.30327
H          H       0.71928   0.04811   0.55476   0.09774
H          H       0.57679   0.34268   0.66020   0.09458
H          H       0.67671   0.92503   0.76603   0.11296
H          H       0.52597   0.23284   0.87475   0.12691
H          H       0.42905   0.08078   0.51123   0.13214
H          H       0.23621   0.28345   0.82165   0.10830
H          H       0.23204   0.06085   0.87107   0.12102
H          H       0.59148   0.90665   0.97459   0.10288
H          H       0.62120   0.03825   0.01437   0.11604
H          H       0.59590   0.56735   0.07720   0.29763
H          H       0.71515   0.55203   0.13514   0.30257
H          H       0.95193   0.28080   0.94501   0.09747
H          H       0.65728   0.42307   0.84006   0.09454
H          H       0.07505   0.32346   0.73364   0.11274
H          H       0.76713   0.47396   0.62547   0.12705
H          H       0.91910   0.57110   0.98871   0.13240
H          H       0.71659   0.76359   0.67852   0.10862
H          H       0.93929   0.76785   0.62897   0.12082
H          H       0.09345   0.40864   0.52519   0.10238
H          H       0.96186   0.37879   0.48551   0.11581
H          H       0.56755   0.59618   0.57697   0.29823
H          H       0.55209   0.71539   0.63506   0.30325
H          H       0.28072   0.95189   0.44524   0.09768
H          H       0.42321   0.65732   0.33981   0.09465
H          H       0.32329   0.07497   0.23397   0.11284
H          H       0.47404   0.76716   0.12525   0.12700
H          H       0.57095   0.91922   0.48877   0.13207
H          H       0.76380   0.71655   0.17835   0.10834
H          H       0.76796   0.93915   0.12893   0.12098
H          H       0.40852   0.09335   0.02541   0.10273
H          H       0.37880   0.96174   0.98563   0.11608
H          H       0.40410   0.43264   0.92280   0.29775
H          H       0.28486   0.44796   0.86486   0.30260
H          H       0.04807   0.71919   0.05499   0.09739
H          H       0.34272   0.57692   0.15994   0.09461
H          H       0.92495   0.67653   0.26636   0.11270
H          H       0.23287   0.52604   0.37453   0.12716
H          H       0.08090   0.42890   0.01129   0.13235
H          H       0.28341   0.23640   0.32148   0.10863
H          H       0.06071   0.23215   0.37103   0.12085
H          H       0.90655   0.59136   0.47482   0.10235
H          H       0.03814   0.62120   0.51449   0.11581
C          C       0.33171   0.44172   0.61199   0.56613
C          C       0.67762   0.08521   0.62893   0.09236
C          C       0.59650   0.24977   0.68800   0.08354
C          C       0.38716   0.25013   0.54966   0.26184
C          C       0.33209   0.30859   0.63822  -0.15425
C          C       0.65230   0.01729   0.74662  -0.18872
C          C       0.56807   0.18751   0.80715  -0.18755
C          C       0.38344   0.12485   0.57858  -0.21095
C          C       0.27710   0.23842   0.75360  -0.09277
C          C       0.59613   0.06817   0.83909   0.17575
C          C       0.32807   0.05695   0.69354  -0.00296
C          C       0.27441   0.11454   0.78179  -0.13131
C          C       0.56683  -0.00084   0.96802  -0.19756
C          C       0.32835   0.92242   0.72403   0.57934
C          C       0.55831   0.66820   0.88796   0.56550
C          C       0.91481   0.32243   0.87094   0.09279
C          C       0.75021   0.40342   0.81214   0.08408
C          C       0.74972   0.61284   0.95044   0.26288
C          C       0.69140   0.66786   0.86187  -0.15446
C          C       0.98276   0.34778   0.75320  -0.18886
C          C       0.81248   0.43187   0.69296  -0.18776
C          C       0.87502   0.61661   0.92144  -0.21230
C          C       0.76165   0.72283   0.74649  -0.09311
C          C       0.93186   0.40388   0.66085   0.17612
C          C       0.94300   0.67190   0.80647  -0.00249
C          C       0.88552   0.72553   0.71825  -0.13097
C          C       0.00089   0.43319   0.53189  -0.19701
C          C       0.07756   0.67157   0.77594   0.57932
C          C       0.66830   0.55828   0.38801   0.56626
C          C       0.32238   0.91478   0.37107   0.09232
C          C       0.40350   0.75022   0.31200   0.08375
C          C       0.61284   0.74987   0.45034   0.26178
C          C       0.66791   0.69140   0.36179  -0.15422
C          C       0.34770   0.98271   0.25338  -0.18868
C          C       0.43193   0.81249   0.19286  -0.18761
C          C       0.61656   0.87515   0.42142  -0.21089
C          C       0.72290   0.76158   0.24640  -0.09283
C          C       0.40387   0.93183   0.16091   0.17575
C          C       0.67194   0.94305   0.30646  -0.00302
C          C       0.72559   0.88545   0.21821  -0.13126
C          C       0.43317   0.00083   0.03198  -0.19766
C          C       0.67165   0.07758   0.27598   0.57938
C          C       0.44169   0.33179   0.11204   0.56564
C          C       0.08519   0.67756   0.12906   0.09268
C          C       0.24979   0.59657   0.18786   0.08401
C          C       0.25028   0.38715   0.04956   0.26290
C          C       0.30860   0.33213   0.13813  -0.15446
C          C       0.01724   0.65222   0.24680  -0.18890
C          C       0.18752   0.56813   0.30704  -0.18781
C          C       0.12499   0.38339   0.07856  -0.21243
C          C       0.23835   0.27717   0.25351  -0.09304
C          C       0.06814   0.59611   0.33915   0.17623
C          C       0.05700   0.32810   0.19353  -0.00243
C          C       0.11448   0.27446   0.28175  -0.13096
C          C      -0.00089   0.56681   0.46811  -0.19716
C          C       0.92244   0.32843   0.22406   0.57930
N          N       0.65069   0.20040   0.59946  -0.25202
N          N       0.45457   0.31606   0.43632  -0.61228
N          N       0.79959   0.34929   0.90057  -0.25257
N          N       0.68372   0.54543   0.06375  -0.61066
N          N       0.34931   0.79959   0.40054  -0.25210
N          N       0.54543   0.68394   0.56368  -0.61229
N          N       0.20041   0.65071   0.09943  -0.25246
N          N       0.31628   0.45457   0.93625  -0.61084
O          O       0.34893   0.50394   0.50477  -0.55950
O          O       0.31306   0.49055   0.69945  -0.56427
O          O       0.36595   0.87431   0.63853  -0.57869
O          O       0.29146   0.86855   0.83447  -0.55631
O          O       0.49584   0.65093   0.99514  -0.55931
O          O       0.50971   0.68690   0.80041  -0.56418
O          O       0.12566   0.63403   0.86135  -0.57868
O          O       0.13143   0.70847   0.66546  -0.55659
O          O       0.65108   0.49605   0.49523  -0.55946
O          O       0.68694   0.50945   0.30055  -0.56429
O          O       0.63405   0.12569   0.36147  -0.57871
O          O       0.70854   0.13144   0.16553  -0.55633
O          O       0.50416   0.34907   0.00486  -0.55936
O          O       0.49029   0.31310   0.19959  -0.56416
O          O       0.87434   0.36597   0.13865  -0.57876
O          O       0.86857   0.29152   0.33454  -0.55653

