data_crystal

_audit_creation_method 'AiiDA-DDEC plugin'

_cell_length_a         4.83666
_cell_length_b        13.87954
_cell_length_c        32.45484

_cell_angle_alpha     90.01631
_cell_angle_beta     90.13811
_cell_angle_gamma     97.81733

_symmetry_space_group_name_Hall 'P 1'
_symmetry_space_group_name_H-M  'P 1'

loop_
_symmetry_equiv_pos_as_xyz
 'x,y,z'

loop_
_atom_site_label
_atom_site_type_symbol
_atom_site_fract_x
_atom_site_fract_y
_atom_site_fract_z
_atom_site_charge
Zn         Zn      0.75556   0.40657   0.47183   1.00182
Zn         Zn      0.75399   0.40671   0.02806   1.00017
Zn         Zn      0.24601   0.59329   0.97194   1.00019
Zn         Zn      0.24444   0.59344   0.52817   1.00184
H          H       0.84735   0.86797   0.14529   0.11567
H          H       0.68683   0.37555   0.38439   0.10071
H          H       0.92222   0.91605   0.66656   0.09951
H          H       0.32501   0.44391   0.60346   0.11600
H          H       0.61428   0.62016   0.17386   0.11120
H          H       0.58425   0.20500   0.83584   0.09613
H          H       0.67465   0.55536   0.10347   0.11603
H          H       0.51480   0.27380   0.59413   0.11781
H          H       0.62607   0.01735   0.14522   0.11615
H          H       0.48520   0.72620   0.40586   0.11797
H          H       0.51634   0.27433   0.90556   0.11797
H          H       0.32536   0.44465   0.89653   0.11616
H          H       0.67500   0.55609   0.39654   0.11592
H          H       0.89889   0.34687   0.74991   0.12122
H          H       0.17141   0.71442   0.67682   0.11141
H          H       0.61354   0.62099   0.32621   0.11092
H          H       0.58041   0.76002   0.75008   0.11824
H          H       0.41549   0.79536   0.33616   0.09664
H          H       0.92139   0.91556   0.83385   0.09994
H          H       0.07779   0.08395   0.33344   0.09951
H          H       0.41575   0.79501   0.16416   0.09617
H          H       0.06645   0.82591   0.60462   0.11449
H          H       0.31318   0.62446   0.61560   0.10064
H          H       0.62451   0.01687   0.35478   0.11657
H          H       0.41959   0.23998   0.24992   0.11824
H          H       0.48367   0.72567   0.09444   0.11810
H          H       0.10112   0.65314   0.25009   0.12115
H          H       0.68692   0.37570   0.11545   0.10028
H          H       0.37550   0.98313   0.64522   0.11659
H          H       0.83316   0.28498   0.17625   0.11161
H          H       0.84684   0.86782   0.35479   0.11623
H          H       0.06602   0.82551   0.89576   0.11469
H          H       0.38646   0.37901   0.67379   0.11094
H          H       0.38573   0.37984   0.82614   0.11129
H          H       0.16684   0.71502   0.82375   0.11158
H          H       0.58451   0.20465   0.66384   0.09657
H          H       0.93356   0.17409   0.39538   0.11434
H          H       0.82860   0.28559   0.32318   0.11156
H          H       0.37393   0.98265   0.85478   0.11604
H          H       0.15265   0.13203   0.85470   0.11566
H          H       0.07862   0.08444   0.16615   0.09990
H          H       0.93398   0.17450   0.10423   0.11465
H          H       0.15316   0.13218   0.64521   0.11628
H          H       0.31308   0.62431   0.88455   0.10012
C          C       0.68392   0.98833   0.25001   0.00057
C          C       0.09909   0.59998   0.44820   0.60241
C          C       0.78782   0.85249   0.84577  -0.15009
C          C       0.91295   0.36683   0.59516  -0.07179
C          C       0.49132   0.16894   0.24992  -0.17255
C          C       0.53006   0.12437   0.21219   0.03465
C          C       0.19762   0.10014   0.74997   0.00562
C          C       0.02078   0.72275   0.25007  -0.17863
C          C       0.53639   0.82391   0.67431   0.06891
C          C       0.08705   0.63317   0.40484  -0.07182
C          C       0.90092   0.40002   0.55180   0.60232
C          C       0.21631   0.34009   0.42851   0.59309
C          C       0.86316   0.85560   0.28824   0.01538
C          C       0.25525   0.74175   0.15074  -0.13820
C          C       0.86359   0.85572   0.21185   0.01549
C          C       0.03141   0.23445   0.78759   0.03796
C          C       0.74476   0.25826   0.84926  -0.13827
C          C       0.62204   0.03215   0.28829   0.02088
C          C       0.35711   0.74174   0.84028  -0.13735
C          C       0.29933   0.28267   0.39291  -0.07510
C          C       0.37797   0.96786   0.71171   0.02086
C          C       0.32162   0.01529   0.82583  -0.12282
C          C       0.79844   0.90130   0.17422  -0.12703
C          C       0.50868   0.83106   0.75007  -0.17276
C          C       0.44568   0.68887   0.62659  -0.07828
C          C       0.70023   0.71674   0.89301  -0.07429
C          C       0.21092   0.14718   0.34543  -0.14972
C          C       0.78299   0.65887   0.92854   0.59113
C          C       0.52876   0.12420   0.28768   0.03417
C          C       0.78909   0.85283   0.65457  -0.14964
C          C       0.67839   0.98471   0.17417  -0.12295
C          C       0.87696   0.80029   0.62139  -0.07476
C          C       0.09817   0.59988   0.05195   0.60264
C          C       0.15664   0.39538   0.61779  -0.07472
C          C       0.47125   0.87580   0.71232   0.03431
C          C       0.37676   0.96766   0.78831   0.02017
C          C       0.91418   0.36714   0.90466  -0.07029
C          C       0.84268   0.60413   0.11787  -0.07481
C          C       0.15732   0.39587   0.88213  -0.07476
C          C       0.53451   0.82382   0.82592   0.07044
C          C       0.70067   0.71734   0.60709  -0.07500
C          C       0.46362   0.17610   0.32569   0.06896
C          C       0.25556   0.74201   0.34952  -0.13903
C          C       0.13641   0.14428   0.78815   0.01550
C          C       0.19628   0.35598   0.84330  -0.13674
C          C       0.29810   0.70086   0.11233  -0.07493
C          C       0.01071   0.71535   0.32719   0.05670
C          C       0.19626   0.35554   0.65661  -0.13634
C          C       0.70085   0.29878   0.61205  -0.07301
C          C       0.46549   0.17618   0.17408   0.07038
C          C       0.62325   0.03234   0.21169   0.02030
C          C       0.21218   0.14751   0.15423  -0.15017
C          C       0.44455   0.68875   0.87351  -0.07834
C          C       0.01054   0.71520   0.17295   0.05599
C          C       0.84337   0.60462   0.38221  -0.07476
C          C       0.64042   0.25850   0.34001  -0.13648
C          C       0.20240   0.09892   0.67417  -0.12798
C          C       0.96860   0.76556   0.21240   0.03793
C          C       0.20156   0.09870   0.82578  -0.12720
C          C       0.80238   0.89987   0.25003   0.00563
C          C       0.80373   0.64402   0.15670  -0.13683
C          C       0.35958   0.74150   0.65999  -0.13647
C          C       0.78370   0.65992   0.57149   0.59298
C          C       0.29978   0.28326   0.10698  -0.07403
C          C       0.46994   0.87563   0.78781   0.03471
C          C       0.08582   0.63286   0.09534  -0.07023
C          C       0.98930   0.28466   0.67281   0.05685
C          C       0.80375   0.64446   0.34339  -0.13631
C          C       0.21701   0.34113   0.07146   0.59079
C          C       0.64289   0.25826   0.15972  -0.13715
C          C       0.90184   0.40013   0.94805   0.60288
C          C       0.70191   0.29915   0.88767  -0.07492
C          C       0.31609   0.01168   0.74999   0.00065
C          C       0.74444   0.25799   0.65048  -0.13935
C          C       0.12305   0.19972   0.37861  -0.07480
C          C       0.12384   0.20014   0.12107  -0.07503
C          C       0.67699   0.98438   0.32583  -0.12298
C          C       0.87616   0.79986   0.87893  -0.07483
C          C       0.79761   0.90109   0.32583  -0.12811
C          C       0.03139   0.23445   0.71229   0.03737
C          C       0.55546   0.31125   0.12649  -0.07848
C          C       0.55432   0.31113   0.37341  -0.07813
C          C       0.29915   0.70122   0.38795  -0.07330
C          C       0.96862   0.76555   0.28771   0.03724
C          C       0.97922   0.27725   0.74993  -0.17867
C          C       0.98947   0.28480   0.82705   0.05596
C          C       0.13684   0.14440   0.71176   0.01523
C          C       0.32302   0.01562   0.67417  -0.12297
O          O       0.30869   0.63430   0.02995  -0.51752
O          O       0.11184   0.45560   0.96248  -0.59941
O          O       0.38784   0.41165   0.44202  -0.57438
O          O       0.88817   0.54440   0.03752  -0.59938
O          O       0.30954   0.63430   0.47041  -0.51766
O          O       0.38773   0.41319   0.05819  -0.57286
O          O       0.69131   0.36570   0.97005  -0.51784
O          O       0.02776   0.68515   0.94357  -0.52538
O          O       0.97136   0.31437   0.44335  -0.52666
O          O       0.11106   0.45560   0.53758  -0.59910
O          O       0.02864   0.68563   0.55665  -0.52642
O          O       0.97224   0.31486   0.05643  -0.52538
O          O       0.69046   0.36570   0.52959  -0.51769
O          O       0.61228   0.58681   0.94180  -0.57320
O          O       0.61216   0.58835   0.55798  -0.57452
O          O       0.88895   0.54441   0.46242  -0.59925

