data_crystal

_audit_creation_method 'AiiDA-DDEC plugin'

_cell_length_a        14.43844
_cell_length_b        14.36046
_cell_length_c        15.20291

_cell_angle_alpha     97.58833
_cell_angle_beta     116.21947
_cell_angle_gamma     113.13194

_symmetry_space_group_name_Hall 'P 1'
_symmetry_space_group_name_H-M  'P 1'

loop_
_symmetry_equiv_pos_as_xyz
 'x,y,z'

loop_
_atom_site_label
_atom_site_type_symbol
_atom_site_fract_x
_atom_site_fract_y
_atom_site_fract_z
_atom_site_charge
Dy         Dy      0.13004   0.11349   0.62228   2.04134
Dy         Dy      0.99206   0.50699   0.87733   2.05066
Dy         Dy      0.87001   0.88646   0.37814   2.04053
Dy         Dy      0.00937   0.49072   0.12462   2.04496
H          H       0.32024   0.25317   0.45453   0.15127
H          H       0.09944   0.99420   0.08616   0.14204
H          H       0.00938   0.95982   0.19533   0.12162
H          H       0.19528   0.28101   0.16266   0.13601
H          H       0.13232   0.34872   0.87987   0.13965
H          H       0.30502   0.16091   0.97291   0.15695
H          H       0.29891   0.86425   0.04659   0.15049
H          H       0.40923   0.01396   0.41489   0.14173
H          H       0.26516   0.81421   0.30657   0.11897
H          H       0.62169   0.03338   0.33780   0.13668
H          H       0.97038   0.25473   0.62016   0.14277
H          H       0.68845   0.33227   0.52768   0.15696
H          H       0.67945   0.74684   0.54572   0.15086
H          H       0.90150   0.00377   0.91505   0.14163
H          H       0.99071   0.04010   0.80558   0.12112
H          H       0.80409   0.71475   0.83781   0.13739
H          H       0.86899   0.64970   0.12177   0.14117
H          H       0.69702   0.83807   0.02886   0.15713
H          H       0.70083   0.13411   0.95388   0.15098
H          H       0.59032   0.98668   0.58511   0.14174
H          H       0.73545   0.18596   0.69453   0.12100
H          H       0.37939   0.96698   0.66260   0.13723
H          H       0.03014   0.74650   0.38012   0.14241
H          H       0.31054   0.66724   0.47217   0.15630
C          C       0.15738   0.10578   0.33063  -0.04203
C          C       0.27036   0.19684   0.37365  -0.10751
C          C       0.31792   0.21763   0.31128  -0.02504
C          C       0.25466   0.14569   0.20640   0.21669
C          C       0.14529   0.05089   0.16625  -0.19274
C          C       0.09608   0.03168   0.22716  -0.04160
C          C       0.25497   0.21531   0.07541   0.25406
C          C       0.20374   0.27317   0.09494  -0.20841
C          C       0.16217   0.32387   0.02634  -0.01890
C          C       0.16787   0.31347   0.93630  -0.11432
C          C       0.21891   0.25405   0.91779  -0.00611
C          C       0.26512   0.20648   0.98800  -0.16986
C          C       0.10049   0.08553   0.39303   0.65801
C          C       0.11214   0.38700   0.05360   0.63557
C          C       0.21480   0.23203   0.81735   0.55907
C          C       0.27613   0.82591   0.17108  -0.04386
C          C       0.32396   0.89568   0.12759  -0.10654
C          C       0.40750   0.00580   0.18965  -0.02498
C          C       0.44136   0.04789   0.29480   0.21455
C          C       0.38624   0.97902   0.33510  -0.19432
C          C       0.30562   0.86863   0.27448  -0.04013
C          C       0.64187   0.17973   0.42544   0.25234
C          C       0.68098   0.10968   0.40560  -0.20443
C          C       0.80030   0.13790   0.47416  -0.02175
C          C       0.87902   0.23391   0.56404  -0.11270
C          C       0.83750   0.30307   0.58248  -0.00666
C          C       0.71953   0.27768   0.51268  -0.16987
C          C       0.19340   0.70630   0.10903   0.66084
C          C       0.83735   0.06150   0.44700   0.63961
C          C       0.91608   0.40081   0.68189   0.55593
C          C       0.84286   0.89396   0.67000  -0.04300
C          C       0.72990   0.80281   0.62687  -0.10541
C          C       0.68257   0.78151   0.68933  -0.02769
C          C       0.74645   0.85265   0.79468   0.21829
C          C       0.85552   0.94769   0.83472  -0.19523
C          C       0.90429   0.96780   0.77362  -0.03981
C          C       0.74625   0.78262   0.92585   0.25196
C          C       0.79630   0.72365   0.90591  -0.20846
C          C       0.83800   0.67330   0.97494  -0.01862
C          C       0.83298   0.68466   0.06529  -0.11600
C          C       0.78222   0.74444   0.08379  -0.00463
C          C       0.73639   0.79205   0.01347  -0.17336
C          C       0.89976   0.91448   0.60767   0.65842
C          C       0.88793   0.60993   0.94758   0.63601
C          C       0.78610   0.76699   0.18408   0.55422
C          C       0.72468   0.17334   0.82997  -0.04402
C          C       0.67620   0.10327   0.87295  -0.10579
C          C       0.59255   0.99327   0.81053  -0.02621
C          C       0.55882   0.95169   0.70533   0.21408
C          C       0.61387   0.02098   0.66524  -0.19236
C          C       0.69500   0.13119   0.72640  -0.04075
C          C       0.35840   0.82027   0.57456   0.25300
C          C       0.31983   0.89071   0.59470  -0.20462
C          C       0.20065   0.86292   0.52623  -0.02236
C          C       0.12139   0.76695   0.43618  -0.11189
C          C       0.16216   0.69715   0.41763  -0.00806
C          C       0.28006   0.72224   0.48738  -0.16884
C          C       0.80801   0.29266   0.89276   0.66180
C          C       0.16388   0.93935   0.55401   0.63914
C          C       0.08346   0.59895   0.31845   0.55718
N          N       0.43447   0.31799   0.35857   0.53036
N          N       0.45934   0.07495   0.14144   0.53236
N          N       0.56575   0.68139   0.64159   0.53407
N          N       0.54003   0.92377   0.85819   0.53322
O          O       0.99131   0.00905   0.34279  -0.67178
O          O       0.16312   0.14396   0.49145  -0.66869
O          O       0.50431   0.35177   0.45566  -0.32814
O          O       0.45410   0.36200   0.29912  -0.30545
O          O       0.10146   0.38767   0.13231  -0.60040
O          O       0.07970   0.44170   0.99760  -0.77806
O          O       0.14709   0.25045   0.74061  -0.64000
O          O       0.26968   0.18549   0.80376  -0.61613
O          O       0.29719   0.16312   0.14106  -0.21348
O          O       0.16776   0.64746   0.15990  -0.67466
O          O       0.15285   0.67062   0.01052  -0.66896
O          O       0.39507   0.04850   0.04457  -0.32830
O          O       0.56295   0.15330   0.20005  -0.30693
O          O       0.76118   0.97384   0.36606  -0.59791
O          O       0.94682   0.08369   0.50534  -0.77977
O          O       0.01359   0.41243   0.75745  -0.63892
O          O       0.88188   0.46806   0.69672  -0.61508
O          O       0.52448   0.15609   0.35979  -0.21426
O          O       0.00886   0.99104   0.65797  -0.67063
O          O       0.83723   0.85620   0.50920  -0.66966
O          O       0.49585   0.64816   0.54455  -0.32935
O          O       0.54596   0.63694   0.70073  -0.30826
O          O       0.89615   0.60788   0.86773  -0.59854
O          O       0.92276   0.55673   0.00469  -0.78203
O          O       0.85397   0.74918   0.26133  -0.63540
O          O       0.73083   0.81347   0.19708  -0.61570
O          O       0.70460   0.83527   0.86049  -0.21192
O          O       0.83641   0.35174   0.84289  -0.67735
O          O       0.84644   0.32845   0.99057  -0.66367
O          O       0.60309   0.95036   0.95521  -0.32732
O          O       0.43690   0.84486   0.79876  -0.30806
O          O       0.24006   0.02695   0.63502  -0.59619
O          O       0.05423   0.91689   0.49596  -0.78115
O          O       0.98705   0.58787   0.24162  -0.63469
O          O       0.11693   0.53055   0.30528  -0.61491
O          O       0.47576   0.84361   0.63986  -0.21176

