data_crystal

_audit_creation_method 'AiiDA-DDEC plugin'

_cell_length_a        11.30884
_cell_length_b        11.32374
_cell_length_c        15.25136

_cell_angle_alpha     96.89881
_cell_angle_beta     96.83572
_cell_angle_gamma     104.62604

_symmetry_space_group_name_Hall 'P 1'
_symmetry_space_group_name_H-M  'P 1'

loop_
_symmetry_equiv_pos_as_xyz
 'x,y,z'

loop_
_atom_site_label
_atom_site_type_symbol
_atom_site_fract_x
_atom_site_fract_y
_atom_site_fract_z
_atom_site_charge
Cd         Cd      0.55041   0.13191   0.42484   1.06125
Cd         Cd      0.86826   0.44936   0.07470   1.05870
Cd         Cd      0.44959   0.86809   0.57517   1.06135
Cd         Cd      0.13174   0.55064   0.92530   1.05863
Cd         Cd      0.32220   0.67758   0.75077   1.16515
Cd         Cd      0.67780   0.32242   0.24924   1.16511
H          H       0.17282   0.94394   0.55958   0.11903
H          H       0.37361   0.32168   0.65884   0.14298
H          H       0.01143   0.96294   0.65582   0.10628
H          H       0.03441   0.16398   0.75459   0.12510
H          H       0.58096   0.81876   0.91786   0.10959
H          H       0.77152   0.97718  -0.00181   0.10891
H          H       0.39680   0.86518   0.14519   0.13757
H          H       0.77292   0.07882   0.15443   0.11593
H          H       0.05677   0.82760   0.94071   0.11905
H          H       0.67887   0.62615   0.84148   0.14265
H          H       0.03727   0.98843   0.84433   0.10567
H          H       0.83593   0.96494   0.74575   0.12468
H          H       0.18115   0.41859   0.58223   0.11013
H          H       0.02275   0.22841   0.50163   0.10993
H          H       0.13438   0.60292   0.35521   0.13880
H          H       0.92102   0.22711   0.34547   0.11614
H          H       0.82718   0.05606   0.44042   0.11916
H          H       0.62639   0.67832   0.34117   0.14296
H          H       0.98857   0.03706   0.34418   0.10628
H          H       0.96559   0.83602   0.24542   0.12504
H          H       0.41903   0.18124   0.08215   0.10961
H          H       0.22848   0.02282   0.00181   0.10894
H          H       0.60319   0.13483   0.85481   0.13749
H          H       0.22707   0.92118   0.84557   0.11594
H          H       0.94323   0.17240   0.05929   0.11908
H          H       0.32113   0.37385   0.15853   0.14262
H          H       0.96272   0.01157   0.15567   0.10574
H          H       0.16407   0.03507   0.25426   0.12471
H          H       0.81885   0.58141   0.41777   0.11007
H          H       0.97725   0.77159   0.49837   0.10987
H          H       0.86562   0.39708   0.64479   0.13885
H          H       0.07898   0.77289   0.65454   0.11618
C          C       0.37602   0.12254   0.54444   0.55979
C          C       0.28267   0.13131   0.60399  -0.03317
C          C       0.18046   0.03006   0.60302  -0.06748
C          C       0.29536   0.24290   0.65924  -0.08813
C          C       0.09107   0.04114   0.65724  -0.09241
C          C       0.10341   0.15254   0.71258  -0.08627
C          C       0.20555   0.25394   0.71326  -0.01740
C          C       0.21580   0.37746   0.76601   0.58307
C          C       0.36299   0.74242   0.97728   0.56424
C          C       0.58360   0.86494   0.98517  -0.05754
C          C       0.47726   0.83481   0.02597  -0.03347
C          C       0.69022   0.95299   0.03091  -0.07471
C          C       0.47877   0.88972   0.11328  -0.07937
C          C       0.69169   0.00922   0.11768  -0.09037
C          C       0.58657   0.97607   0.15954  -0.03542
C          C       0.58914   0.03067   0.25337   0.55480
C          C       0.87752   0.62350   0.95548   0.55432
C          C       0.86925   0.71727   0.89627  -0.03240
C          C       0.97049   0.81954   0.89726  -0.06887
C          C       0.75749   0.70455   0.84111  -0.08441
C          C       0.95920   0.90872   0.84303  -0.08983
C          C       0.84763   0.89622   0.78779  -0.08869
C          C       0.74623   0.79420   0.78718  -0.02031
C          C       0.62237   0.78442   0.73494   0.58192
C          C       0.25736   0.63667   0.52429   0.56750
C          C       0.13503   0.41614   0.51496  -0.05785
C          C       0.16529   0.52267   0.47462  -0.03462
C          C       0.04695   0.30969   0.46899  -0.07502
C          C       0.11023   0.52123   0.38730  -0.08034
C          C       0.99059   0.30837   0.38222  -0.09113
C          C       0.02362   0.41364   0.34066  -0.03418
C          C       0.96939   0.41245   0.24675   0.54971
C          C       0.62398   0.87746   0.45557   0.55967
C          C       0.71733   0.86869   0.39601  -0.03319
C          C       0.81954   0.96994   0.39698  -0.06732
C          C       0.70464   0.75710   0.34076  -0.08802
C          C       0.90893   0.95886   0.34277  -0.09252
C          C       0.89659   0.84746   0.28742  -0.08644
C          C       0.79445   0.74606   0.28674  -0.01739
C          C       0.78420   0.62254   0.23399   0.58307
C          C       0.63701   0.25758   0.02272   0.56401
C          C       0.41640   0.13506   0.01483  -0.05754
C          C       0.52274   0.16520   0.97404  -0.03322
C          C       0.30978   0.04701   0.96909  -0.07449
C          C       0.52123   0.11028   0.88672  -0.07943
C          C       0.30831   0.99078   0.88232  -0.09037
C          C       0.41343   0.02393   0.84046  -0.03576
C          C       0.41085   0.96933   0.74663   0.55500
C          C       0.12248   0.37650   0.04453   0.55437
C          C       0.13075   0.28273   0.10374  -0.03242
C          C       0.02951   0.18046   0.10274  -0.06903
C          C       0.24251   0.29546   0.15890  -0.08433
C          C       0.04080   0.09128   0.15697  -0.08982
C          C       0.15237   0.10378   0.21221  -0.08872
C          C       0.25376   0.20580   0.21282  -0.02024
C          C       0.37763   0.21558   0.26507   0.58189
C          C       0.74264   0.36333   0.47572   0.56770
C          C       0.86497   0.58386   0.48504  -0.05789
C          C       0.83471   0.47733   0.52539  -0.03446
C          C       0.95305   0.69031   0.53102  -0.07512
C          C       0.88977   0.47877   0.61270  -0.08049
C          C       0.00941   0.69163   0.61779  -0.09102
C          C       0.97638   0.58637   0.65935  -0.03404
C          C       0.03061   0.58755   0.75325   0.54962
O          O       0.37494   0.01697   0.50199  -0.53839
O          O       0.45402   0.22018   0.53385  -0.44745
O          O       0.26195   0.73214   0.00865  -0.47936
O          O       0.36875   0.67259   0.90627  -0.54612
O          O       0.27207   0.47006   0.73263  -0.53658
O          O       0.16684   0.38077   0.83626  -0.48466
O          O       0.67244   0.13146   0.28896  -0.60850
O          O       0.51026   0.97631   0.29796  -0.46983
O          O       0.98267   0.62530  -0.00069  -0.53706
O          O       0.77978   0.54401   0.96427  -0.44511
O          O       0.26783   0.73791   0.49335  -0.48346
O          O       0.32656   0.63055   0.59551  -0.54719
O          O       0.52999   0.72922   0.76909  -0.53516
O          O       0.61890   0.83304   0.66458  -0.48685
O          O       0.86944   0.32850   0.20943  -0.60813
O          O       0.02357   0.49367   0.20391  -0.46573
O          O       0.62506   0.98303   0.49801  -0.53820
O          O       0.54598   0.77982   0.46615  -0.44744
O          O       0.73805   0.26786   0.99136  -0.47953
O          O       0.63125   0.32741   0.09373  -0.54577
O          O       0.72793   0.52994   0.26738  -0.53652
O          O       0.83316   0.61923   0.16374  -0.48482
O          O       0.32756   0.86854   0.71104  -0.60857
O          O       0.48974   0.02369   0.70204  -0.46995
O          O       0.01732   0.37470   0.00070  -0.53717
O          O       0.22022   0.45599   0.03574  -0.44510
O          O       0.73217   0.26209   0.50665  -0.48351
O          O       0.67344   0.36945   0.40450  -0.54736
O          O       0.47001   0.27078   0.23091  -0.53535
O          O       0.38110   0.16696   0.33542  -0.48658
O          O       0.13056   0.67150   0.79057  -0.60804
O          O       0.97643   0.50633   0.79610  -0.46567

