data_crystal

_audit_creation_method 'AiiDA-DDEC plugin'

_cell_length_a        10.55594
_cell_length_b        10.69526
_cell_length_c        19.98136

_cell_angle_alpha     105.19629
_cell_angle_beta     90.11402
_cell_angle_gamma     119.58358

_symmetry_space_group_name_Hall 'P 1'
_symmetry_space_group_name_H-M  'P 1'

loop_
_symmetry_equiv_pos_as_xyz
 'x,y,z'

loop_
_atom_site_label
_atom_site_type_symbol
_atom_site_fract_x
_atom_site_fract_y
_atom_site_fract_z
_atom_site_charge
Zn         Zn      0.87450   0.14485   0.77060   0.95556
Zn         Zn      0.01778   0.43713   0.90398   0.97579
Zn         Zn      0.16234   0.43659   0.75956   0.96057
Zn         Zn      0.86302   0.44371   0.76941   0.97591
Zn         Zn      0.26823   0.14244   0.27106   0.95324
Zn         Zn      0.41878   0.43132   0.40300   0.97040
Zn         Zn      0.26970   0.43243   0.25935   0.96253
Zn         Zn      0.57626   0.43848   0.26783   0.97714
H          H       0.20225   0.23834   0.54732   0.13168
H          H       0.90415   0.88020   0.36530   0.11450
H          H       0.71418   0.77777   0.44077   0.10499
H          H       0.77353   0.90031   0.57031   0.12224
H          H       0.56758   0.52248   0.85426   0.12691
H          H       0.77461   0.57128   0.05241   0.12416
H          H       0.57265   0.58888   0.10990   0.10277
H          H       0.36515   0.56959   0.03859   0.12076
H          H       0.41812   0.85351   0.73074   0.13117
H          H       0.42767   0.26810   0.74908   0.12062
H          H       0.16065   0.14233   0.75899   0.09030
H          H       0.01972   0.86996   0.74926   0.12161
H          H       0.03595   0.23966   0.04771   0.13063
H          H       0.97880   0.88492   0.86518   0.11382
H          H       0.06768   0.78266   0.94045   0.10532
H          H       0.12768   0.90206   0.07035   0.12312
H          H       0.95526   0.51833   0.35409   0.12625
H          H       0.79650   0.57002   0.55145   0.12359
H          H       0.01672   0.59092   0.61024   0.10211
H          H       0.20626   0.57232   0.54036   0.12159
H          H       0.43232   0.85086   0.23164   0.13110
H          H       0.83582   0.26541   0.24704   0.12109
H          H       0.97832   0.14145   0.25825   0.09014
H          H       0.84854   0.87028   0.25035   0.12135
C          C       0.01927   0.15204   0.64408   0.59843
C          C       0.17608   0.13333   0.40671   0.59779
C          C       0.99153   0.07591   0.56699  -0.05488
C          C       0.09656   0.13617   0.52437  -0.08889
C          C       0.06531   0.06462   0.45174  -0.05268
C          C       0.92770   0.93438   0.42166  -0.06749
C          C       0.82196   0.87653   0.46409  -0.08724
C          C       0.85417   0.94514   0.53648  -0.06901
C          C       0.32593   0.52416   0.89790   0.60405
C          C       0.80083   0.53138   0.91356   0.59255
C          C       0.45296   0.54440   0.94183  -0.05717
C          C       0.56832   0.53722   0.91016  -0.09086
C          C       0.68406   0.54702   0.94994  -0.05489
C          C       0.68485   0.56513   0.02214  -0.06387
C          C       0.57113   0.57489   0.05402  -0.08944
C          C       0.45536   0.56454   0.01433  -0.06534
C          C       0.12955   0.68310   0.73788   0.59742
C          C       0.60111   0.14383   0.73740   0.60652
C          C       0.20946   0.84355   0.73844  -0.06566
C          C       0.36071   0.91542   0.73495  -0.08724
C          C       0.43888   0.06754   0.73775  -0.05476
C          C       0.36600   0.14923   0.74569  -0.06573
C          C       0.21610   0.07825   0.75080  -0.08260
C          C       0.13696   0.92563   0.74615  -0.07049
C          C       0.12933   0.15106   0.14427   0.59941
C          C       0.95931   0.13686   0.90625   0.59932
C          C       0.08340   0.07652   0.06704  -0.05765
C          C       0.03955   0.13779   0.02446  -0.08741
C          C       0.00067   0.06783   0.95167  -0.05524
C          C       0.00904   0.93832   0.92161  -0.06432
C          C       0.05733   0.88038   0.96396  -0.08842
C          C       0.09191   0.94714   0.03651  -0.06880
C          C       0.19871   0.52087   0.39903   0.60430
C          C       0.73017   0.52600   0.41190   0.59271
C          C       0.09262   0.54316   0.44257  -0.05414
C          C       0.96988   0.53494   0.41016  -0.09283
C          C       0.86359   0.54498   0.44928  -0.05234
C          C       0.88073   0.56459   0.52164  -0.06466
C          C       0.00466   0.57607   0.55429  -0.08887
C          C       0.11052   0.56547   0.51527  -0.06724
C          C       0.55053   0.68164   0.23920   0.59639
C          C       0.53710   0.13923   0.23584   0.60356
C          C       0.63135   0.84216   0.23951  -0.06192
C          C       0.55156   0.91330   0.23548  -0.09104
C          C       0.62451   0.06475   0.23705  -0.05100
C          C       0.77911   0.14700   0.24457  -0.06732
C          C       0.85868   0.07700   0.25047  -0.08185
C          C       0.78605   0.92486   0.24685  -0.07252
O          O       0.92753   0.07612   0.67982  -0.55182
O          O       0.13036   0.28637   0.66873  -0.54714
O          O       0.29461   0.25697   0.43747  -0.55103
O          O       0.14374   0.06473   0.34033  -0.53939
O          O       0.23468   0.55479   0.92964  -0.56125
O          O       0.31747   0.47597   0.83108  -0.54044
O          O       0.88693   0.50661   0.94642  -0.54832
O          O       0.80646   0.54381   0.85175  -0.55393
O          O       0.20735   0.62190   0.73765  -0.54350
O          O       0.98940   0.61871   0.73735  -0.55018
O          O       0.97959   0.36728   0.80087  -1.01934
O          O       0.66443   0.27302   0.72675  -0.55515
O          O       0.66378   0.07352   0.74879  -0.54263
O          O       0.14486   0.07546   0.18028  -0.55275
O          O       0.15057   0.28461   0.16870  -0.54619
O          O       0.96320   0.25984   0.93648  -0.55376
O          O       0.92453   0.06862   0.83983  -0.53942
O          O       0.31975   0.54938   0.43090  -0.55859
O          O       0.15835   0.47257   0.33221  -0.54414
O          O       0.61940   0.50104   0.44474  -0.54892
O          O       0.73560   0.53525   0.34956  -0.55368
O          O       0.41151   0.62045   0.23921  -0.54392
O          O       0.62615   0.61715   0.23857  -0.55066
O          O       0.38497   0.36367   0.29991  -1.01826
O          O       0.59924   0.26544   0.22223  -0.55601
O          O       0.40597   0.06986   0.24955  -0.53918

