data_crystal

_audit_creation_method 'AiiDA-DDEC plugin'

_cell_length_a         9.23045
_cell_length_b        15.21768
_cell_length_c        19.29804

_cell_angle_alpha     89.99774
_cell_angle_beta     90.00905
_cell_angle_gamma     89.99955

_symmetry_space_group_name_Hall 'P 1'
_symmetry_space_group_name_H-M  'P 1'

loop_
_symmetry_equiv_pos_as_xyz
 'x,y,z'

loop_
_atom_site_label
_atom_site_type_symbol
_atom_site_fract_x
_atom_site_fract_y
_atom_site_fract_z
_atom_site_charge
Cd         Cd      0.67687   0.50002   0.24998   0.88459
Cd         Cd      0.32312   0.49998   0.75001   0.88457
Cd         Cd      0.82312   0.00003   0.75002   0.88516
Cd         Cd      0.17687  -0.00002   0.24998   0.88510
H          H       0.88658   0.30248   0.23718   0.14851
H          H       0.86012   0.69638   0.41271   0.27889
H          H       0.13991   0.69635   0.91272   0.27869
H          H       0.58338   0.38108   0.10185   0.13555
H          H       0.41661   0.61893   0.89815   0.13542
H          H       0.91656   0.11893   0.60189   0.13539
H          H       0.18191   0.38680   0.96867   0.13635
H          H       0.61338   0.80248   0.76284   0.14869
H          H       0.64049   0.80369   0.91267   0.27847
H          H       0.35952   0.80366   0.41266   0.27887
H          H       0.11341   0.69752   0.76282   0.14835
H          H       0.18191   0.61321   0.53135   0.13654
H          H       0.88656   0.69751   0.26282   0.14858
H          H       0.68197   0.88690   0.53138   0.13682
H          H       0.11344   0.30250   0.73718   0.14861
H          H       0.91660   0.88107   0.89813   0.13553
H          H       0.38658   0.80249   0.26284   0.14873
H          H       0.31802   0.88690   0.03136   0.13697
H          H       0.86008   0.30365   0.08728   0.27903
H          H       0.64047   0.19634   0.58734   0.27868
H          H       0.61341   0.19751   0.73716   0.14858
H          H       0.38661   0.19753   0.23716   0.14862
H          H       0.58342   0.61891   0.39813   0.13531
H          H       0.13987   0.30363   0.58729   0.27877
H          H       0.68198   0.11311   0.96864   0.13697
H          H       0.08343   0.88108   0.39811   0.13539
H          H       0.41657   0.38109   0.60187   0.13547
H          H       0.81808   0.38680   0.46864   0.13659
H          H       0.81808   0.61320   0.03133   0.13659
H          H       0.35950   0.19632   0.08733   0.27864
H          H       0.08340   0.11894   0.10187   0.13556
H          H       0.31802   0.11311   0.46862   0.13703
C          C       0.95804   0.14892   0.64871   0.05465
C          C       0.60216   0.93620   0.51676  -0.11356
C          C       0.92440   0.49523   0.06345  -0.03854
C          C       0.02738   0.43044   0.04606  -0.03735
C          C       0.93921   0.75701   0.28051   0.06356
C          C       0.60217   0.06380   0.98326  -0.11353
C          C       0.93251   0.64416   0.90662   0.49105
C          C       0.43908   0.25710   0.21947   0.06464
C          C       0.56753   0.14462   0.09330   0.49039
C          C       0.34454   0.00615   0.13133   0.54001
C          C       0.97261   0.56956   0.95394  -0.03753
C          C       0.06078   0.24299   0.71949   0.06371
C          C       0.04192   0.14892   0.14869   0.05438
C          C       0.52774   0.06958   0.04620  -0.03548
C          C       0.93252   0.35587   0.59338   0.49115
C          C       0.39783   0.06381   0.48324  -0.11336
C          C       0.65546   0.00616   0.63133   0.54020
C          C       0.93922   0.24297   0.21948   0.06395
C          C       0.47223   0.06959   0.54620  -0.03579
C          C       0.34453   0.99384   0.36866   0.54033
C          C       0.39782   0.93620   0.01674  -0.11338
C          C       0.97261   0.43044   0.54605  -0.03725
C          C       0.54168   0.35119   0.14866   0.05472
C          C       0.43246   0.14462   0.59330   0.49029
C          C       0.02739   0.56956   0.45395  -0.03730
C          C       0.89793   0.56389   0.01681  -0.11230
C          C       0.56754   0.85538   0.40670   0.49026
C          C       0.47225   0.93042   0.95380  -0.03582
C          C       0.56092   0.25708   0.71948   0.06450
C          C       0.65546   0.99385   0.86867   0.54012
C          C       0.15553   0.49367   0.63137   0.53798
C          C       0.45832   0.64882   0.85134   0.05484
C          C       0.43246   0.85539   0.90670   0.49041
C          C       0.10206   0.43612   0.98319  -0.11247
C          C       0.92442   0.50477   0.43654  -0.03843
C          C       0.57541   0.99523   0.93655  -0.03880
C          C       0.52776   0.93042   0.45380  -0.03567
C          C       0.95807   0.85109   0.85131   0.05470
C          C       0.42460   0.99523   0.43654  -0.03884
C          C       0.89794   0.43611   0.48317  -0.11249
C          C       0.57539   0.00477   0.56346  -0.03876
C          C       0.07557   0.49524   0.56346  -0.03856
C          C       0.06077   0.75703   0.78052   0.06361
C          C       0.45829   0.35119   0.64868   0.05498
C          C       0.06748   0.64414   0.40662   0.49096
C          C       0.07559   0.50477   0.93655  -0.03845
C          C       0.43907   0.74292   0.28052   0.06481
C          C       0.42458   0.00477   0.06345  -0.03896
C          C       0.15553   0.50634   0.86864   0.53800
C          C       0.54170   0.64882   0.35132   0.05514
C          C       0.06748   0.35585   0.09338   0.49104
C          C       0.10205   0.56390   0.51683  -0.11232
C          C       0.04195   0.85108   0.35129   0.05460
C          C       0.56091   0.74291   0.78053   0.06486
C          C       0.84446   0.49366   0.13136   0.53767
C          C       0.84446   0.50633   0.36863   0.53772
N          N       0.97585   0.17418   0.25676  -0.18088
N          N       0.03440   0.28677   0.59559  -0.34152
N          N       0.96555   0.28678   0.09559  -0.34161
N          N       0.52176   0.72939   0.84878   0.17303
N          N       0.47582   0.67419   0.24322  -0.18140
N          N       0.47824   0.72938   0.34877   0.17280
N          N       0.54127   0.61525   0.28826  -0.18959
N          N       0.46494   0.78668   0.40438  -0.34019
N          N       0.97873   0.77045   0.34873   0.17495
N          N       0.47583   0.32585   0.25676  -0.18147
N          N       0.95861   0.88471   0.78826  -0.18996
N          N       0.02415   0.17421   0.75678  -0.18054
N          N       0.45874   0.61523   0.78828  -0.18951
N          N       0.96560   0.71323   0.40441  -0.34127
N          N       0.52416   0.67416   0.74324  -0.18156
N          N       0.04139   0.88469   0.28824  -0.19051
N          N       0.53505   0.21332   0.59562  -0.34016
N          N       0.02414   0.82582   0.74324  -0.18068
N          N       0.54125   0.38477   0.21172  -0.18928
N          N       0.04138   0.11530   0.21173  -0.19007
N          N       0.95860   0.11532   0.71176  -0.19065
N          N       0.52175   0.27062   0.65123   0.17291
N          N       0.97584   0.82579   0.24322  -0.18032
N          N       0.97871   0.22955   0.15126   0.17475
N          N       0.45873   0.38475   0.71174  -0.18904
N          N       0.46491   0.21330   0.09561  -0.34011
N          N       0.53508   0.78670   0.90438  -0.34026
N          N       0.02128   0.77045   0.84874   0.17469
N          N       0.03444   0.71323   0.90441  -0.34142
N          N       0.02126   0.22955   0.65127   0.17498
N          N       0.52417   0.32582   0.75678  -0.18155
N          N       0.47823   0.27062   0.15122   0.17313
O          O       0.68660   0.15171   0.12066  -0.45272
O          O       0.62711   0.06735   0.67399  -0.57611
O          O       0.68660   0.84829   0.37934  -0.45273
O          O       0.12837   0.43165   0.67359  -0.57539
O          O       0.75103   0.55401   0.14261  -0.53548
O          O       0.37288   0.93265   0.32600  -0.57632
O          O       0.37290   0.06736   0.17399  -0.57610
O          O       0.81352   0.65028   0.87906  -0.45216
O          O       0.87164   0.43164   0.17358  -0.57523
O          O       0.87162   0.56835   0.32641  -0.57520
O          O       0.62710   0.93265   0.82601  -0.57628
O          O       0.18647   0.34972   0.12094  -0.45238
O          O       0.18646   0.65021   0.37905  -0.45254
O          O       0.24979   0.94656   0.14230  -0.53731
O          O       0.81353   0.34979   0.62095  -0.45235
O          O       0.24897   0.44599   0.85739  -0.53603
O          O       0.75020   0.05345   0.85770  -0.53724
O          O       0.31339   0.84830   0.87934  -0.45237
O          O       0.24896   0.55402   0.64261  -0.53575
O          O       0.24976   0.05343   0.35770  -0.53723
O          O       0.12835   0.56836   0.82642  -0.57498
O          O       0.75103   0.44598   0.35739  -0.53569
O          O       0.31339   0.15171   0.62066  -0.45249
O          O       0.75023   0.94657   0.64229  -0.53749

