data_crystal

_audit_creation_method 'AiiDA-DDEC plugin'

_cell_length_a        10.29782
_cell_length_b        10.28322
_cell_length_c        20.81016

_cell_angle_alpha     103.83019
_cell_angle_beta     103.99231
_cell_angle_gamma     94.31585

_symmetry_space_group_name_Hall 'P 1'
_symmetry_space_group_name_H-M  'P 1'

loop_
_symmetry_equiv_pos_as_xyz
 'x,y,z'

loop_
_atom_site_label
_atom_site_type_symbol
_atom_site_fract_x
_atom_site_fract_y
_atom_site_fract_z
_atom_site_charge
Cd         Cd      0.52412   0.62835   0.68412   1.07678
Cd         Cd      0.62206   0.75803   0.46624   1.05391
Cd         Cd      0.36600   0.47183   0.81261   1.07689
Cd         Cd      0.24068   0.37452   0.03314   1.05288
Cd         Cd      0.47588   0.37166   0.31588   1.07678
Cd         Cd      0.37795   0.24197   0.53376   1.05392
Cd         Cd      0.63401   0.52818   0.18739   1.07692
Cd         Cd      0.75932   0.62548   0.96686   1.05295
H          H       0.70136   0.40453   0.56398   0.12973
H          H       0.06865   0.65488   0.58170   0.14155
H          H       0.53258   0.13899   0.68576   0.14374
H          H       0.08667   0.32832   0.67791   0.11736
H          H       0.96782   0.11390   0.62222   0.13513
H          H       0.84926   0.91157   0.64063   0.13337
H          H       0.59026   0.29705   0.93516   0.13141
H          H       0.34133   0.92702   0.91459   0.14132
H          H       0.86077   0.46908   0.81437   0.14553
H          H       0.66725   0.91506   0.81858   0.11897
H          H       0.88071   0.03211   0.87733   0.13462
H          H       0.08425   0.14950   0.85944   0.13330
H          H       0.29865   0.59548   0.43602   0.12984
H          H       0.93135   0.34512   0.41830   0.14133
H          H       0.46743   0.86102   0.31423   0.14388
H          H       0.91333   0.67169   0.32209   0.11740
H          H       0.03219   0.88610   0.37778   0.13502
H          H       0.15075   0.08843   0.35937   0.13341
H          H       0.40974   0.70296   0.06484   0.13116
H          H       0.65868   0.07299   0.08541   0.14152
H          H       0.13923   0.53093   0.18563   0.14538
H          H       0.33275   0.08494   0.18142   0.11890
H          H       0.11930   0.96789   0.12267   0.13472
H          H       0.91575   0.85050   0.14056   0.13334
C          C       0.63063   0.37750   0.66854   0.57415
C          C       0.81021   0.43020   0.58508  -0.08900
C          C       0.81590   0.24090   0.64131   0.08597
C          C       0.01699   0.57062   0.59331  -0.05292
C          C       0.87571   0.53800   0.56991  -0.01929
C          C       0.88419   0.35311   0.62458   0.08289
C          C       0.69027   0.24751   0.65878  -0.06199
C          C       0.62639   0.13418   0.67052  -0.12930
C          C       0.02617   0.38531   0.64714  -0.09933
C          C       0.09167   0.49338   0.63225  -0.02425
C          C       0.24231   0.52446   0.65784   0.57566
C          C       0.68392   0.01342   0.66426   0.00956
C          C       0.79078   0.61864   0.53077   0.54394
C          C       0.87365   0.11963   0.63712  -0.10339
C          C       0.80765   0.00656   0.64695  -0.08653
C          C       0.55505   0.03890   0.48882   0.43563
C          C       0.61200   0.89003   0.67361   0.52377
C          C       0.62118   0.37299   0.83156   0.57281
C          C       0.56511   0.18827   0.91313  -0.09204
C          C       0.75530   0.18506   0.85779   0.08284
C          C       0.42532   0.97952   0.90323  -0.05283
C          C       0.45758   0.12075   0.92758  -0.02099
C          C       0.64228   0.11586   0.87341   0.08243
C          C       0.75005   0.31144   0.84072  -0.05748
C          C       0.86402   0.37468   0.82927  -0.12784
C          C       0.61030   0.97381   0.84983  -0.09941
C          C       0.50249   0.90627   0.86399  -0.02427
C          C       0.47224   0.75540   0.83746   0.57483
C          C       0.98375   0.31560   0.83537   0.01206
C          C       0.37729   0.20419   0.96733   0.54425
C          C       0.87614   0.12660   0.86252  -0.10442
C          C       0.98970   0.19180   0.85295  -0.08623
C          C       0.96149   0.44705   0.01269   0.43876
C          C       0.10711   0.38527   0.82517   0.52153
C          C       0.36937   0.62251   0.33146   0.57416
C          C       0.18980   0.56980   0.41492  -0.08892
C          C       0.18410   0.75911   0.35869   0.08592
C          C       0.98302   0.42939   0.40669  -0.05289
C          C       0.12429   0.46200   0.43009  -0.01933
C          C       0.11582   0.64690   0.37542   0.08292
C          C       0.30973   0.75249   0.34122  -0.06211
C          C       0.37361   0.86582   0.32948  -0.12777
C          C       0.97384   0.61469   0.35286  -0.09914
C          C       0.90833   0.50663   0.36775  -0.02443
C          C       0.75770   0.47554   0.34216   0.57571
C          C       0.31608   0.98659   0.33574   0.00528
C          C       0.20923   0.38137   0.46923   0.54385
C          C       0.12635   0.88037   0.36288  -0.10377
C          C       0.19235   0.99344   0.35305  -0.08477
C          C       0.44495   0.96111   0.51118   0.43585
C          C       0.38801   0.10998   0.32639   0.52470
C          C       0.37883   0.62702   0.16844   0.57251
C          C       0.43489   0.81174   0.08687  -0.09206
C          C       0.24471   0.81494   0.14221   0.08310
C          C       0.57469   0.02048   0.09677  -0.05277
C          C       0.54242   0.87926   0.07242  -0.02096
C          C       0.35772   0.88414   0.12659   0.08249
C          C       0.24995   0.68857   0.15928  -0.05738
C          C       0.13599   0.62532   0.17073  -0.12803
C          C       0.38970   0.02619   0.15017  -0.09942
C          C       0.49751   0.09374   0.13601  -0.02436
C          C       0.52777   0.24460   0.16254   0.57491
C          C       0.01625   0.68440   0.16463   0.01217
C          C       0.62272   0.79581   0.03267   0.54433
C          C       0.12386   0.87341   0.13748  -0.10441
C          C       0.01031   0.80821   0.14705  -0.08644
C          C       0.03852   0.55296   0.98731   0.43862
C          C       0.89289   0.61474   0.17483   0.52172
O          O       0.64383   0.97442   0.46755  -0.46341
O          O       0.55187   0.16300   0.49276  -0.46505
O          O       0.69540   0.48131   0.71388  -0.48150
O          O       0.51357   0.38263   0.62967  -0.58223
O          O       0.67490   0.78546   0.67202  -0.52950
O          O       0.84373   0.72085   0.51634  -0.52407
O          O       0.30523   0.46027   0.69813  -0.60423
O          O       0.30088   0.61124   0.63569  -0.51341
O          O       0.66228   0.58416   0.51312  -0.49958
O          O       0.49493   0.89010   0.68188  -0.43826
O          O       0.02535   0.35842   0.03489  -0.46442
O          O       0.83844   0.45373   0.01015  -0.46915
O          O       0.51647   0.31003   0.78578  -0.48308
O          O       0.61709   0.48891   0.87106  -0.57642
O          O       0.20912   0.31916   0.82454  -0.52849
O          O       0.27384   0.15076   0.98048  -0.52589
O          O       0.53983   0.69462   0.79872  -0.59875
O          O       0.38309   0.69522   0.85760  -0.51330
O          O       0.41450   0.33250   0.98698  -0.50034
O          O       0.10963   0.50350   0.81814  -0.43503
O          O       0.35617   0.02559   0.53245  -0.46370
O          O       0.44814   0.83701   0.50724  -0.46532
O          O       0.30461   0.51869   0.28612  -0.48159
O          O       0.48643   0.61738   0.37033  -0.58213
O          O       0.32510   0.21455   0.32798  -0.52936
O          O       0.15628   0.27916   0.48366  -0.52439
O          O       0.69478   0.53973   0.30187  -0.60413
O          O       0.69913   0.38877   0.36431  -0.51366
O          O       0.33772   0.41585   0.48688  -0.49922
O          O       0.50507   0.10991   0.31812  -0.43787
O          O       0.97466   0.64158   0.96511  -0.46419
O          O       0.16156   0.54628   0.98985  -0.46886
O          O       0.48354   0.68998   0.21422  -0.48281
O          O       0.38291   0.51110   0.12894  -0.57639
O          O       0.79088   0.68084   0.17546  -0.52854
O          O       0.72616   0.84925   0.01952  -0.52560
O          O       0.46018   0.30539   0.20128  -0.59892
O          O       0.61692   0.30478   0.14240  -0.51306
O          O       0.58551   0.66750   0.01302  -0.50067
O          O       0.89037   0.49651   0.18186  -0.43528

