data_crystal

_audit_creation_method 'AiiDA-DDEC plugin'

_cell_length_a        10.03320
_cell_length_b        11.02477
_cell_length_c        22.40463

_cell_angle_alpha     95.21352
_cell_angle_beta     89.87132
_cell_angle_gamma     89.64469

_symmetry_space_group_name_Hall 'P 1'
_symmetry_space_group_name_H-M  'P 1'

loop_
_symmetry_equiv_pos_as_xyz
 'x,y,z'

loop_
_atom_site_label
_atom_site_type_symbol
_atom_site_fract_x
_atom_site_fract_y
_atom_site_fract_z
_atom_site_charge
Ca         Ca      0.97574   0.45300   0.83739   1.40981
Ca         Ca      0.02427   0.54699   0.16260   1.40980
Ca         Ca      0.82384   0.74976   0.25010   1.43697
Ca         Ca      0.17616   0.25024   0.74989   1.43715
Ca         Ca      0.97486   0.04889   0.66300   1.41264
Ca         Ca     -0.00000   0.50000  -0.00000   1.47304
Ca         Ca      0.00000  -0.00000   0.50000   1.46782
Ca         Ca      0.02515   0.95111   0.33700   1.41267
H          H       0.69644   0.15754   0.48960   0.11311
H          H       0.14814   0.13744   0.00588   0.11081
H          H       0.52136   0.69427   0.94126   0.11702
H          H       0.19148   0.58686   0.50053   0.11164
H          H       0.85186   0.86255   0.99412   0.11066
H          H       0.73156   0.66799   0.99743   0.10772
H          H       0.00869   0.87394   0.81618   0.13077
H          H       0.80852   0.41313   0.49947   0.11181
H          H       0.49829   0.41189   0.84794   0.12517
H          H       0.85087   0.63711   0.50507   0.11109
H          H       0.47673   0.19405   0.44167   0.11771
H          H       0.30357   0.84245   0.51039   0.11295
H          H       0.99131   0.12606   0.18381   0.13045
H          H       0.99252   0.37173   0.31708   0.13006
H          H       0.80900   0.08692   0.00097   0.11074
H          H       0.88095   0.20611   0.91768   0.11225
H          H       0.50331   0.91240   0.34758   0.12476
H          H       0.14914   0.36289   0.49493   0.11109
H          H       0.11907   0.70459   0.41667   0.11276
H          H       0.30217   0.65603   0.98913   0.11115
H          H       0.88094   0.29541   0.58333   0.11285
H          H       0.49670   0.08759   0.65241   0.12462
H          H       0.47865   0.30573   0.05874   0.11694
H          H       0.26845   0.33201   0.00257   0.10752
H          H       0.19100   0.91307  -0.00097   0.11106
H          H       0.69784   0.34396   0.01087   0.11123
H          H       0.50171   0.58810   0.15206   0.12507
H          H       0.73347   0.83378   0.50209   0.10838
H          H       0.26653   0.16621   0.49791   0.10835
H          H       0.52328   0.80595   0.55832   0.11767
H          H       0.11906   0.79389   0.08232   0.11236
H          H       0.00749   0.62826   0.68292   0.12999
C          C       0.49269   0.38856   0.89400  -0.10126
C          C       0.93067   0.64657   0.59426  -0.05046
C          C       0.03896   0.27986   0.09750   0.60774
C          C       0.36941   0.37273   0.92149  -0.06493
C          C       0.26057   0.59071   0.10221   0.58940
C          C       0.00283   0.61775   0.31351   0.61083
C          C       0.12493   0.08500   0.04336  -0.07245
C          C       0.75690   0.89575   0.38779   0.63567
C          C       0.05276   0.54561   0.36147  -0.06436
C          C       0.87397   0.58530   0.54282  -0.07380
C          C       0.03559   0.41882   0.35718  -0.09512
C          C       0.48092   0.16997   0.48766  -0.08443
C          C       0.03441   0.07929   0.14340  -0.09619
C          C       0.24311   0.10425   0.61220   0.63567
C          C       0.73944   0.40928   0.89779   0.58941
C          C       0.96559   0.92070   0.85660  -0.09613
C          C       0.05200   0.95231   0.13843  -0.06504
C          C       0.51732   0.67024   0.98725  -0.08473
C          C       0.51909   0.83003   0.51234  -0.08454
C          C       0.75507   0.60680   0.11213   0.63432
C          C       0.85173   0.46004   0.53958  -0.08959
C          C       0.00268   0.87982   0.18630   0.61394
C          C       0.89152   0.10753   0.91377  -0.07417
C          C       0.06934   0.35342   0.40574  -0.05042
C          C       0.39613   0.84947   0.48555  -0.07961
C          C       0.10905   0.60610   0.41328  -0.07258
C          C      -0.00267   0.12017   0.81370   0.61362
C          C       0.14740   0.95944   0.03939  -0.08827
C          C       0.96442   0.58117   0.64281  -0.09514
C          C       0.87508   0.91500   0.95664  -0.07234
C          C       0.12604   0.41469   0.45718  -0.07377
C          C       0.94725   0.45439   0.63852  -0.06452
C          C       0.96049   0.78017   0.59530   0.60928
C          C       0.14828   0.53995   0.46042  -0.08946
C          C       0.03952   0.21983   0.40470   0.60933
C          C       0.94801   0.04768   0.86157  -0.06513
C          C       0.39074   0.87992   0.42614  -0.04300
C          C       0.63544   0.65637   0.01880  -0.08376
C          C       0.10849   0.89246   0.08622  -0.07419
C          C       0.38941   0.61941   0.07339  -0.04388
C          C       0.36457   0.34363   0.98120  -0.08380
C          C       0.49108   0.11092   0.60636  -0.10204
C          C       0.48269   0.32975   0.01275  -0.08482
C          C       0.85260   0.04056   0.96060  -0.08840
C          C       0.26161   0.90738   0.39700   0.58654
C          C       0.36773   0.12595   0.57888  -0.06685
C          C       0.50893   0.88908   0.39364  -0.10187
C          C      -0.00282   0.38225   0.68649   0.61073
C          C       0.50732   0.61143   0.10600  -0.10140
C          C       0.36282   0.15525   0.51920  -0.08409
C          C       0.39462   0.64997   0.01402  -0.07774
C          C       0.60539   0.35002   0.98598  -0.07768
C          C       0.63719   0.84474   0.48080  -0.08370
C          C       0.73839   0.09262   0.60299   0.58645
C          C       0.61060   0.38059   0.92660  -0.04380
C          C       0.89095   0.39390   0.58672  -0.07237
C          C       0.93186   0.85435   0.90479  -0.04981
C          C       0.24493   0.39320   0.88787   0.63471
C          C       0.96105   0.72014   0.90250   0.60771
C          C       0.63228   0.87404   0.42112  -0.06710
C          C       0.06815   0.14564   0.09521  -0.04977
C          C       0.63060   0.62726   0.07851  -0.06475
C          C       0.60926   0.12008   0.57386  -0.04286
C          C       0.60388   0.15053   0.51445  -0.07941
O          O       0.96596   0.67322   0.95252  -0.67393
O          O       0.00050   0.76328   0.17800  -0.68761
O          O       0.04686   0.43603   0.73500  -0.67638
O          O       0.00037   0.73433   0.32168  -0.68621
O          O       0.01995   0.33860   0.14855  -0.63785
O          O       0.95312   0.93358   0.23505  -0.67693
O          O       0.03405   0.32678   0.04748  -0.67377
O          O       0.86006   0.56926   0.08348  -0.67268
O          O       0.13995   0.43073   0.91652  -0.67318
O          O       0.84593   0.41769   0.93043  -0.70949
O          O       0.15408   0.58230   0.06957  -0.70963
O          O       0.84619   0.08491   0.57092  -0.70776
O          O       0.24620   0.37550   0.83043  -0.68643
O          O       0.74020   0.07782   0.65841  -0.58920
O          O       0.24206   0.12151   0.66966  -0.68846
O          O       0.95315   0.56397   0.26500  -0.67615
O          O       0.86039   0.93382   0.41671  -0.67063
O          O       0.02027   0.15913   0.35427  -0.64115
O          O      -0.00049   0.23672   0.82199  -0.68779
O          O      -0.00037   0.26567   0.67831  -0.68594
O          O       0.96589   0.82424   0.54459  -0.67046
O          O       0.75380   0.62450   0.16957  -0.68654
O          O       0.04689   0.06642   0.76495  -0.67645
O          O       0.03412   0.17575   0.45541  -0.67078
O          O       0.74186   0.42449   0.84239  -0.58960
O          O       0.98005   0.66139   0.85144  -0.63746
O          O       0.15382   0.91508   0.42908  -0.70804
O          O       0.13962   0.06618   0.58329  -0.67066
O          O       0.97974   0.84086   0.64573  -0.64146
O          O       0.75795   0.87849   0.33034  -0.68833
O          O       0.25981   0.92217   0.34159  -0.58891
O          O       0.25815   0.57551   0.15760  -0.58963

