data_crystal

_audit_creation_method 'AiiDA-DDEC plugin'

_cell_length_a        11.39099
_cell_length_b        12.93663
_cell_length_c        14.36745

_cell_angle_alpha     80.40220
_cell_angle_beta     72.35407
_cell_angle_gamma     76.69511

_symmetry_space_group_name_Hall 'P 1'
_symmetry_space_group_name_H-M  'P 1'

loop_
_symmetry_equiv_pos_as_xyz
 'x,y,z'

loop_
_atom_site_label
_atom_site_type_symbol
_atom_site_fract_x
_atom_site_fract_y
_atom_site_fract_z
_atom_site_charge
Co         Co      0.50285  -0.00254  -0.00215   0.81372
Co         Co      0.50006   0.49826  -0.00219   0.84099
H          H       0.45458   0.22555   0.25415   0.11777
H          H       0.53982   0.08784   0.37406   0.11867
H          H       0.87801   0.21611   0.28899   0.12240
H          H       0.78690   0.35944   0.17427   0.11993
H          H       0.52187   0.18913   0.68870   0.12030
H          H       0.61502   0.21093   0.50790   0.12238
H          H       0.80992   0.88312   0.52044   0.11875
H          H       0.71717   0.86347   0.70107   0.11764
H          H       0.22369   0.52407   0.08572   0.10337
H          H       0.04713   0.65313   0.17886   0.12079
H          H       0.32319   0.82920   0.18800   0.11968
H          H       0.48623   0.69298   0.09769   0.11188
H          H       0.93123   0.81491   0.17569   0.10937
H          H       0.75846   0.94598   0.26725   0.12602
H          H       0.00581   0.00880   0.41661   0.11368
H          H       0.17833   0.87566   0.32792   0.10562
H          H       0.23929   0.10585   0.10221   0.10703
H          H       0.01892   0.11741   0.10156   0.11766
H          H       0.15982   0.87062   0.90306   0.10998
H          H       0.37159   0.87039   0.91329   0.10064
H          H       0.54860   0.77257   0.74308   0.11823
H          H       0.46576   0.91011   0.62203   0.11893
H          H       0.12666   0.78333   0.70469   0.12169
H          H       0.21576   0.63981   0.82054   0.12039
H          H       0.48149   0.80771   0.30738   0.12147
H          H       0.38889   0.78753   0.48827   0.12114
H          H       0.19582   0.11622   0.47346   0.12064
H          H       0.28793   0.13359   0.29281   0.11706
H          H       0.77388   0.47342   0.91086   0.10314
H          H       0.95199   0.34576   0.81742   0.12203
H          H       0.67870   0.16685   0.80772   0.11975
H          H       0.51446   0.30173   0.89803   0.11303
H          H       0.06942   0.18310   0.82168   0.10963
H          H       0.24416   0.05367   0.72994   0.12669
H          H      -0.00024   0.98908   0.57870   0.11352
H          H       0.82556   0.12028   0.66763   0.10453
H          H       0.76633   0.89163   0.89352   0.10673
H          H       0.98641   0.88094   0.89414   0.11881
H          H       0.84408   0.12610   0.09431   0.11048
H          H       0.63253   0.12594   0.08357   0.10016
C          C       0.56526   0.38108   0.13492   0.54298
C          C       0.61510   0.30123   0.20821  -0.03134
C          C       0.54533   0.22488   0.26470  -0.07854
C          C       0.59358   0.14739   0.33040  -0.17506
C          C       0.71416   0.14428   0.33804   0.17268
C          C       0.78474   0.22004   0.28159  -0.18766
C          C       0.73471   0.29897   0.21788  -0.09086
C          C       0.56000   0.01279   0.81532   0.52984
C          C       0.61215   0.02440   0.70718  -0.08295
C          C       0.58426   0.12223   0.65119  -0.08206
C          C       0.63633   0.13462   0.55012  -0.20134
C          C       0.71861   0.04850   0.50102   0.19823
C          C       0.74734   0.95030   0.55706  -0.20517
C          C       0.69496   0.93926   0.65819  -0.08075
C          C       0.24075   0.59266   0.11079   0.08727
C          C       0.14287   0.66575   0.16185  -0.19122
C          C       0.16856   0.75390   0.19260   0.10149
C          C       0.29503   0.76234   0.16948  -0.18112
C          C       0.38795   0.68622   0.11778   0.09832
C          C       0.06698   0.83358   0.24628   0.04396
C          C       0.94761   0.85525   0.22996  -0.11516
C          C       0.85034   0.92946   0.28059  -0.16871
C          C       0.87048   0.98410   0.34912   0.16906
C          C       0.98946   0.96449   0.36516  -0.17466
C          C       0.08666   0.89001   0.31434  -0.11149
C          C       0.21602   0.05595   0.05902   0.08989
C          C       0.09320   0.06171   0.05760  -0.17196
C          C       0.06709   0.99603   0.00072   0.09604
C          C       0.17013   0.92524   0.94866  -0.16820
C          C       0.29048   0.92394   0.95372   0.09225
C          C       0.43623   0.61761   0.86153   0.54099
C          C       0.38753   0.69768   0.78792  -0.02631
C          C       0.45817   0.77362   0.73177  -0.08107
C          C       0.41110   0.85108   0.66549  -0.17537
C          C       0.29062   0.85489   0.65728   0.17342
C          C       0.21950   0.77917   0.71302  -0.18649
C          C       0.26839   0.70017   0.77728  -0.09367
C          C       0.44549   0.98312   0.18008   0.52836
C          C       0.39276   0.97253   0.28812  -0.08165
C          C       0.41984   0.87503   0.34463  -0.08377
C          C       0.36777   0.86361   0.44571  -0.20118
C          C       0.28620   0.95043   0.49425   0.19910
C          C       0.25776   0.04831   0.43754  -0.20652
C          C       0.31012   0.05826   0.33638  -0.08036
C          C       0.75815   0.40443   0.88552   0.08770
C          C       0.85676   0.33196   0.83435  -0.19289
C          C       0.83243   0.24329   0.80339   0.10110
C          C       0.70619   0.23394   0.82643  -0.17939
C          C       0.61242   0.30948   0.87824   0.09461
C          C       0.93507   0.16394   0.74996   0.04671
C          C       0.05418   0.14283   0.76684  -0.11844
C          C       0.15262   0.06946   0.71602  -0.17004
C          C       0.13412   0.01509   0.64648   0.16979
C          C       0.01521   0.03353   0.63046  -0.17495
C          C       0.91691   0.10708   0.68153  -0.11122
C          C       0.78926   0.94150   0.93692   0.09097
C          C       0.91188   0.93609   0.93853  -0.17525
C          C       0.93742   0.00145   0.99599   0.09744
C          C       0.83406   0.07181   0.04826  -0.17006
C          C       0.71390   0.07288   0.04285   0.09308
N          N       0.77015   0.06114   0.39943  -0.16105
N          N       0.36215   0.60213   0.08833  -0.24264
N          N       0.31435   0.98869   0.00751  -0.22720
N          N       0.23533   0.93871   0.59598  -0.16090
N          N       0.63705   0.39409   0.90775  -0.24201
N          N       0.69056   0.00829   0.98860  -0.22643
O          O       0.47018   0.36852   0.11123  -0.54805
O          O       0.62125   0.45896   0.09343  -0.56552
O          O       0.50033   0.09496   0.86066  -0.55508
O          O       0.57846   0.92113   0.86518  -0.55534
O          O       0.53029   0.63030   0.88649  -0.54642
O          O       0.38038   0.53932   0.90192  -0.56526
O          O       0.50402   0.90050   0.13494  -0.55504
O          O       0.42827   0.07485   0.13015  -0.55380

