data_crystal

_audit_creation_method 'AiiDA-DDEC plugin'

_cell_length_a         9.90993
_cell_length_b        15.33738
_cell_length_c        18.49668

_cell_angle_alpha     103.24153
_cell_angle_beta     90.23891
_cell_angle_gamma     89.88080

_symmetry_space_group_name_Hall 'P 1'
_symmetry_space_group_name_H-M  'P 1'

loop_
_symmetry_equiv_pos_as_xyz
 'x,y,z'

loop_
_atom_site_label
_atom_site_type_symbol
_atom_site_fract_x
_atom_site_fract_y
_atom_site_fract_z
_atom_site_charge
Zn         Zn      0.54291   0.79784   0.96918   0.91023
Zn         Zn      0.04320   0.20258   0.53293   0.91048
Zn         Zn      0.45645   0.20245   0.03095   0.90915
Zn         Zn      0.95756   0.79737   0.46774   0.90773
Zn         Zn      0.49809   0.00097   0.00164   1.01534
Zn         Zn     -0.00202  -0.00108   0.50002   1.01706
Zn         Zn      0.50249   0.49997   0.00151   0.99516
Zn         Zn      0.99650   0.50002   0.49997   0.99119
H          H       0.80849  -0.00142   0.91316   0.11624
H          H       0.01718   0.08814   0.90414   0.11541
H          H       0.34772   0.00190   0.21105   0.12771
H          H       0.22858  -0.00082   0.33035   0.12476
H          H       0.31751   0.71592   0.14329   0.09658
H          H       0.19432   0.71328   0.26199   0.11011
H          H       0.72588   0.55893   0.91431   0.04770
H          H       0.30993   0.00132   0.58841   0.11716
H          H       0.51781   0.90993   0.59632   0.11527
H          H       0.84670  -0.00134   0.29035   0.12841
H          H       0.72747   0.00193   0.17069   0.12462
H          H       0.81662   0.28463   0.35839   0.09625
H          H       0.69358   0.28793   0.23917   0.10926
H          H       0.22089   0.44444   0.58681   0.04682
H          H       0.19113   0.00110   0.08893   0.11597
H          H       0.98259   0.91130   0.09774   0.11625
H          H       0.65218   0.99715   0.78952   0.12712
H          H       0.77202   0.00005   0.67045   0.12391
H          H       0.68008   0.28310   0.85691   0.09811
H          H       0.80449   0.28617   0.73879   0.10895
H          H       0.27352   0.44218   0.08537   0.04668
H          H       0.68874  -0.00179   0.41207   0.11674
H          H       0.48105   0.08957   0.40441   0.11630
H          H       0.15340   0.00249   0.71050   0.12788
H          H       0.27175  -0.00028   0.83058   0.12469
H          H       0.18438   0.71643   0.64306   0.09948
H          H       0.30687   0.71380   0.76247   0.10997
H          H       0.77426   0.55908   0.41180   0.04683
C          C       0.76329   0.89361   0.01074   0.57687
C          C       0.88367   0.94998   0.00616  -0.02416
C          C       0.89263  -0.00038   0.95124  -0.09122
C          C       0.00828   0.04926   0.94624  -0.09934
C          C       0.13021   0.85600   0.37271   0.59861
C          C       0.20534   0.85591   0.30286  -0.02780
C          C       0.40932   0.86208   0.09944   0.59029
C          C       0.33931   0.85895   0.17037  -0.02637
C          C       0.31446   0.93913   0.22297  -0.09118
C          C       0.24870   0.93766   0.28906  -0.08548
C          C       0.29716   0.77720   0.18472  -0.10782
C          C       0.22966   0.77567   0.25029  -0.10987
C          C       0.65467   0.61466   0.93342   0.47752
C          C       0.26338   0.10781   0.49269   0.57711
C          C       0.38366   0.05056   0.49597  -0.02278
C          C       0.39348   0.00007   0.55030  -0.09337
C          C       0.50868   0.94933   0.55453  -0.09768
C          C       0.62984   0.14466   0.12768   0.60085
C          C       0.70440   0.14524   0.19817  -0.02726
C          C       0.90897   0.13825   0.40221   0.59020
C          C       0.83833   0.14160   0.33118  -0.02619
C          C       0.81339   0.06155   0.27843  -0.09055
C          C       0.74758   0.06334   0.21215  -0.08520
C          C       0.79615   0.22349   0.31677  -0.10874
C          C       0.72867   0.22537   0.25093  -0.10953
C          C       0.15109   0.38766   0.56846   0.47549
C          C       0.23617   0.10609   0.99139   0.57695
C          C       0.11588   0.04984   0.99601  -0.02689
C          C       0.10696   0.00015   0.05090  -0.09087
C          C       0.99137   0.95045   0.05583  -0.09974
C          C       0.86967   0.14369   0.62778   0.59901
C          C       0.79468   0.14343   0.69776  -0.02706
C          C       0.58810   0.13749   0.90072   0.59003
C          C       0.65928   0.14007   0.82998  -0.02621
C          C       0.68529   0.05995   0.77759  -0.08985
C          C       0.75160   0.06161   0.71164  -0.08641
C          C       0.70132   0.22187   0.81563  -0.11039
C          C       0.76956   0.22359   0.75032  -0.10790
C          C       0.34356   0.38568   0.06670   0.47837
C          C       0.73562   0.89152   0.50769   0.57841
C          C       0.61525   0.94872   0.50454  -0.02583
C          C       0.60540  -0.00070   0.45027  -0.09264
C          C       0.49022   0.05002   0.44607  -0.09898
C          C       0.36966   0.85616   0.87371   0.59943
C          C       0.29526   0.85639   0.80330  -0.02759
C          C       0.09105   0.86223   0.59885   0.58966
C          C       0.16196   0.85951   0.66995  -0.02693
C          C       0.18666   0.93970   0.72264  -0.08997
C          C       0.25206   0.93818   0.78916  -0.08587
C          C       0.20437   0.77775   0.68455  -0.11042
C          C       0.27151   0.77618   0.75051  -0.10972
C          C       0.84533   0.61483   0.43115   0.47882
O          O       0.65984   0.90200   0.96660  -0.59979
O          O       0.12698   0.92874   0.42179  -0.56011
O          O       0.07317   0.78232   0.37820  -0.56113
O          O       0.43949   0.78589   0.05565  -0.57206
O          O       0.67389   0.68832   0.92007  -0.34196
O          O       0.76032   0.83844   0.05065  -0.52628
O          O       0.43393   0.93809   0.08721  -0.55383
O          O       0.54657   0.59954   0.97109  -0.51799
O          O       0.16016   0.09808   0.53601  -0.59888
O          O       0.62687   0.07118   0.07953  -0.55997
O          O       0.57331   0.21801   0.12050  -0.56276
O          O       0.93970   0.21443   0.44584  -0.57065
O          O       0.17359   0.31467   0.58235  -0.34145
O          O       0.26006   0.16481   0.45442  -0.52652
O          O       0.93366   0.06221   0.41458  -0.55487
O          O       0.04069   0.40086   0.53110  -0.51650
O          O       0.33934   0.09860   0.03625  -0.60051
O          O       0.87233   0.07113   0.57848  -0.56219
O          O       0.92673   0.21735   0.62226  -0.56040
O          O       0.55396   0.21420   0.94243  -0.57054
O          O       0.32115   0.31206   0.07943  -0.34202
O          O       0.23986   0.16050   0.95086  -0.52194
O          O       0.56641   0.06223   0.91515  -0.55515
O          O       0.45356   0.40003   0.03000  -0.52098
O          O       0.83949   0.90188   0.46481  -0.60082
O          O       0.37229   0.92873   0.92306  -0.56228
O          O       0.42667   0.78246   0.87952  -0.56040
O          O       0.05983   0.78582   0.55577  -0.57067
O          O       0.82612   0.68849   0.41778  -0.34133
O          O       0.73910   0.83397   0.54536  -0.52412
O          O       0.06644   0.93790   0.58572  -0.55435
O          O       0.95357   0.59962   0.46919  -0.51890

