data_crystal

_audit_creation_method 'AiiDA-DDEC plugin'

_cell_length_a        10.56450
_cell_length_b        13.98834
_cell_length_c        16.67550

_cell_angle_alpha     73.52118
_cell_angle_beta     71.52046
_cell_angle_gamma     67.80167

_symmetry_space_group_name_Hall 'P 1'
_symmetry_space_group_name_H-M  'P 1'

loop_
_symmetry_equiv_pos_as_xyz
 'x,y,z'

loop_
_atom_site_label
_atom_site_type_symbol
_atom_site_fract_x
_atom_site_fract_y
_atom_site_fract_z
_atom_site_charge
La         La      0.23729   0.79699   0.86560   2.07812
La         La      0.95005   0.94102   0.71079   1.97918
La         La      0.90008   0.70282   0.63435   2.07780
La         La      0.60180   0.55905   0.78922   1.97980
La         La      0.76272   0.20300   0.13440   2.07812
La         La      0.04996   0.05898   0.28921   1.97914
La         La      0.09993   0.29717   0.36566   2.07791
La         La      0.39821   0.44094   0.21079   1.97987
H          H       0.14974   0.86506   0.04960   0.39276
H          H       0.00577   0.90999   0.01671   0.41647
H          H       0.43659   0.62696   0.98168   0.41937
H          H       0.55003   0.68619   0.92877   0.40485
H          H       0.32787   0.20030   0.53871   0.12373
H          H       0.55398   0.14653   0.58307   0.14182
H          H       0.29041   0.15154   0.77577   0.13387
H          H       0.06539   0.63497   0.45015   0.39417
H          H       0.93302   0.59078   0.48294   0.41587
H          H       0.04638   0.87093   0.51820   0.41849
H          H       0.16594   0.81233   0.57127   0.40276
H          H       0.06664   0.29974   0.96180   0.12380
H          H       0.28330   0.35335   0.91785   0.14194
H          H       0.21767   0.34856   0.72398   0.13442
H          H       0.85027   0.13493   0.95041   0.39264
H          H       0.99424   0.09000   0.98329   0.41667
H          H       0.56342   0.37304   0.01832   0.41913
H          H       0.44997   0.31381   0.07123   0.40471
H          H       0.67214   0.79970   0.46129   0.12398
H          H       0.44603   0.85347   0.41694   0.14182
H          H       0.70960   0.84845   0.22423   0.13364
H          H       0.93462   0.36503   0.54985   0.39419
H          H       0.06699   0.40921   0.51707   0.41613
H          H       0.95363   0.12906   0.48180   0.41881
H          H       0.83407   0.18767   0.42874   0.40252
H          H       0.93336   0.70026   0.03820   0.12362
H          H       0.71671   0.64664   0.08215   0.14173
H          H       0.78234   0.65143   0.27602   0.13434
C          C       0.30676   0.04608   0.58220  -0.06007
C          C       0.37442   0.11991   0.56927  -0.07736
C          C       0.50001   0.09009   0.59354  -0.07495
C          C       0.56300   0.98544   0.62962  -0.03968
C          C       0.49534   0.91034   0.64381  -0.05808
C          C       0.36707   0.94115   0.62025  -0.06674
C          C       0.17326   0.08237   0.55242   0.64426
C          C       0.29426   0.86221   0.63218   0.60438
C          C       0.54645   0.79686   0.68511   0.64607
C          C       0.70145   0.96067   0.64935   0.58101
C          C       0.18581   0.19627   0.76508  -0.08674
C          C       0.08796   0.14279   0.78358  -0.06854
C          C       0.95114   0.19677   0.77021  -0.06241
C          C       0.13494   0.02688   0.81323   0.56565
C          C       0.83774   0.14385   0.80529   0.61345
C          C       0.93497   0.45386   0.91796  -0.06222
C          C       0.06343   0.38008   0.93117  -0.07536
C          C       0.18354   0.40982   0.90705  -0.07637
C          C       0.17810   0.51438   0.87083  -0.03917
C          C       0.04971   0.58946   0.85621  -0.05758
C          C       0.92860   0.55874   0.87975  -0.06632
C          C       0.80792   0.41752   0.94760   0.64720
C          C       0.78888   0.63780   0.86781   0.60159
C          C       0.02875   0.70295   0.81482   0.64380
C          C       0.31137   0.53933   0.85110   0.58251
C          C       0.14712   0.30378   0.73481  -0.08761
C          C       0.01439   0.35715   0.71614  -0.06993
C          C       0.91807   0.30321   0.72974  -0.06182
C          C       0.97527   0.47305   0.68648   0.56704
C          C       0.78653   0.35611   0.69493   0.61554
C          C       0.69325   0.95391   0.41781  -0.05998
C          C       0.62559   0.88008   0.43074  -0.07728
C          C       0.50000   0.90991   0.40646  -0.07504
C          C       0.43701   0.01455   0.37038  -0.03974
C          C       0.50466   0.08965   0.35619  -0.05802
C          C       0.63294   0.05884   0.37976  -0.06675
C          C       0.82675   0.91763   0.44758   0.64383
C          C       0.70575   0.13779   0.36782   0.60414
C          C       0.45356   0.20314   0.31489   0.64589
C          C       0.29855   0.03932   0.35065   0.58118
C          C       0.81420   0.80372   0.23492  -0.08697
C          C       0.91205   0.85720   0.21643  -0.06852
C          C       0.04887   0.80323   0.22979  -0.06237
C          C       0.86507   0.97312   0.18678   0.56624
C          C       0.16226   0.85615   0.19472   0.61348
C          C       0.06504   0.54613   0.08204  -0.06220
C          C       0.93658   0.61991   0.06883  -0.07558
C          C       0.81647   0.59018   0.09296  -0.07635
C          C       0.82191   0.48562   0.12917  -0.03908
C          C       0.95029   0.41053   0.14379  -0.05770
C          C       0.07141   0.44125   0.12025  -0.06599
C          C       0.19209   0.58247   0.05240   0.64740
C          C       0.21113   0.36220   0.13219   0.60099
C          C       0.97126   0.29705   0.18518   0.64387
C          C       0.68864   0.46066   0.14890   0.58264
C          C       0.85289   0.69621   0.26520  -0.08763
C          C       0.98561   0.64284   0.28387  -0.06989
C          C       0.08194   0.69679   0.27027  -0.06179
C          C       0.02474   0.52695   0.31352   0.56701
C          C       0.21347   0.64388   0.30507   0.61537
O          O       0.07825   0.03777   0.59048  -0.64485
O          O       0.16083   0.15770   0.48902  -0.64090
O          O       0.20739   0.84776   0.70639  -0.72719
O          O       0.31485   0.81882   0.57130  -0.47457
O          O       0.47496   0.76754   0.75939  -0.65452
O          O       0.64860   0.72855   0.64601  -0.64559
O          O       0.75574   0.87021   0.69513  -0.69827
O          O       0.76474   0.02855   0.62235  -0.55164
O          O       0.25793   0.97974   0.82538  -0.58214
O          O       0.04941   0.97486   0.82487  -0.68843
O          O       0.81253   0.10382   0.75364  -0.65041
O          O       0.77417   0.14391   0.88269  -0.50036
O          O       0.10732   0.88107   0.99770  -0.83770
O          O       0.46786   0.66757   0.92503  -0.85296
O          O       0.70644   0.46210   0.90952  -0.64535
O          O       0.80704   0.34218   0.01097  -0.64244
O          O       0.76182   0.65221   0.79362  -0.72719
O          O       0.70546   0.68125   0.92872  -0.47364
O          O       0.00149   0.73253   0.74076  -0.65186
O          O       0.02388   0.77118   0.85386  -0.64644
O          O       0.32032   0.62980   0.80499  -0.69865
O          O       0.41569   0.47188   0.87826  -0.55167
O          O       0.06339   0.52006   0.67434  -0.58271
O          O       0.84932   0.52519   0.67495  -0.68937
O          O       0.66995   0.39625   0.74674  -0.65182
O          O       0.79973   0.35605   0.61758  -0.50106
O          O       0.98736   0.61882   0.50215  -0.83817
O          O       0.06168   0.82976   0.57470  -0.85094
O          O       0.92176   0.96222   0.40952  -0.64461
O          O       0.83918   0.84230   0.51099  -0.64046
O          O       0.79262   0.15224   0.29362  -0.72719
O          O       0.68516   0.18118   0.42871  -0.47438
O          O       0.52504   0.23246   0.24061  -0.65456
O          O       0.35141   0.27145   0.35399  -0.64550
O          O       0.24427   0.12979   0.30488  -0.69865
O          O       0.23526   0.97144   0.37765  -0.55153
O          O       0.74207   0.02025   0.17462  -0.58287
O          O       0.95060   0.02513   0.17514  -0.68846
O          O       0.18747   0.89618   0.24636  -0.65008
O          O       0.22584   0.85608   0.11731  -0.50050
O          O       0.89269   0.11893   0.00230  -0.83774
O          O       0.53215   0.33243   0.07498  -0.85267
O          O       0.29357   0.53789   0.09048  -0.64528
O          O       0.19297   0.65782   0.98904  -0.64262
O          O       0.23819   0.34778   0.20639  -0.72673
O          O       0.29455   0.31875   0.07129  -0.47344
O          O      -0.00148   0.26746   0.25924  -0.65179
O          O       0.97613   0.22882   0.14614  -0.64657
O          O       0.67969   0.37020   0.19502  -0.69843
O          O       0.58432   0.52811   0.12175  -0.55214
O          O       0.93662   0.47994   0.32566  -0.58303
O          O       0.15069   0.47480   0.32505  -0.68901
O          O       0.33006   0.60375   0.25327  -0.65163
O          O       0.20027   0.64395   0.38242  -0.50072
O          O       0.01265   0.38117   0.49786  -0.83838
O          O       0.93833   0.17024   0.42531  -0.85099

