data_crystal

_audit_creation_method 'AiiDA-DDEC plugin'

_cell_length_a        13.49783
_cell_length_b        14.31481
_cell_length_c        14.32327

_cell_angle_alpha     110.70653
_cell_angle_beta     108.29589
_cell_angle_gamma     108.34901

_symmetry_space_group_name_Hall 'P 1'
_symmetry_space_group_name_H-M  'P 1'

loop_
_symmetry_equiv_pos_as_xyz
 'x,y,z'

loop_
_atom_site_label
_atom_site_type_symbol
_atom_site_fract_x
_atom_site_fract_y
_atom_site_fract_z
_atom_site_charge
Ga         Ga      0.52026   0.54602   0.37865   1.45802
Ga         Ga      0.73489   0.41253   0.54592   1.29501
Ga         Ga      0.97538   0.83287   0.45410   1.45907
Ga         Ga      0.32326   0.13328   0.58750   1.29659
Ga         Ga      0.14162   0.62147   0.16746   1.45755
Ga         Ga      0.18972   0.45408   0.86667   1.29524
Ga         Ga      0.47974   0.45397   0.62134   1.45805
Ga         Ga      0.26511   0.58746   0.45408   1.29487
Ga         Ga      0.02462   0.16713   0.54590   1.45903
Ga         Ga      0.67674   0.86671   0.41250   1.29654
Ga         Ga      0.85838   0.37853   0.83254   1.45763
Ga         Ga      0.81028   0.54591   0.13332   1.29517
P          P       0.46040   0.33902   0.39381   1.46009
P          P       0.39491   0.68674   0.33212   1.52945
P          P       0.12159   0.05496   0.66085   1.45979
P          P       0.70817   0.64535   0.31299   1.52875
P          P       0.06733   0.60640   0.94574   1.45876
P          P       0.06324   0.66776   0.35486   1.52855
P          P       0.53960   0.66097   0.60618   1.46003
P          P       0.60509   0.31325   0.66788   1.52957
P          P       0.87841   0.94503   0.33914   1.45975
P          P       0.29183   0.35465   0.68700   1.52887
P          P       0.93267   0.39360   0.05426   1.45882
P          P       0.93676   0.33224   0.64514   1.52841
H          H       0.71435   0.23059   0.39577   0.28752
H          H       0.58515   0.23676   0.34664   0.30395
H          H       0.76081   0.54108   0.45308   0.25835
H          H       0.86542   0.56381   0.76045   0.29793
H          H       0.74358   0.57542   0.70798   0.29868
H          H       0.72833   0.27299   0.25538   0.09717
H          H       0.64917   0.35010   0.27969   0.09157
H          H       0.96527   0.68507   0.58036   0.10003
H          H       0.98487   0.59154   0.63264   0.10178
H          H       0.86621   0.48448   0.35842   0.11494
H          H       0.90460   0.42485   0.44589   0.09673
H          H       0.95143   0.73167   0.76176   0.10642
H          H       0.81462   0.68947   0.64549   0.10076
H          H       0.48425   0.16509   0.76950   0.28753
H          H       0.34850   0.10984   0.76254   0.30383
H          H       0.21960   0.91147   0.45890   0.25983
H          H       0.30129   0.19667   0.43674   0.29716
H          H       0.16830   0.13176   0.42592   0.29929
H          H       0.45534   0.98188   0.72645   0.09700
H          H       0.29892   0.92885   0.64911   0.09195
H          H       0.28038   0.89478   0.31510   0.09996
H          H       0.39356   0.04104   0.40911   0.10140
H          H       0.38173   0.87316   0.51498   0.11539
H          H       0.47989   0.02076   0.57505   0.09685
H          H       0.22003   0.02990   0.26921   0.10675
H          H       0.12513   0.95541   0.31087   0.10000
H          H       0.31914   0.60384   0.83526   0.28834
H          H       0.23924   0.65320   0.89081   0.30319
H          H       0.30826   0.54759   0.08854   0.25940
H          H       0.10462   0.23962   0.80353   0.29733
H          H       0.03638   0.29350   0.86832   0.29873
H          H       0.47374   0.74495   0.01835   0.09645
H          H       0.37044   0.72068   0.07135   0.09128
H          H       0.38579   0.42050   0.10519   0.09925
H          H       0.35259   0.36784   0.95914   0.10128
H          H       0.50891   0.64240   0.12702   0.11532
H          H       0.45944   0.55440   0.97960   0.09772
H          H       0.19000   0.23898   0.97011   0.10741
H          H       0.16994   0.35557   0.04468   0.09977
H          H       0.28565   0.76941   0.60423   0.28733
H          H       0.41485   0.76323   0.65335   0.30385
H          H       0.23919   0.45892   0.54692   0.25861
H          H       0.13457   0.43619   0.23955   0.29792
H          H       0.25642   0.42457   0.29202   0.29883
H          H       0.27166   0.72701   0.74462   0.09698
H          H       0.35083   0.64990   0.72031   0.09170
H          H       0.03473   0.31492   0.41964   0.10011
H          H       0.01513   0.40846   0.36736   0.10168
H          H       0.13378   0.51551   0.64158   0.11501
H          H       0.09540   0.57514   0.55411   0.09658
H          H       0.04857   0.26833   0.23824   0.10655
H          H       0.18538   0.31053   0.35451   0.10086
H          H       0.51574   0.83491   0.23049   0.28762
H          H       0.65150   0.89016   0.23746   0.30380
H          H       0.78040   0.08853   0.54110   0.25968
H          H       0.69871   0.80332   0.56325   0.29727
H          H       0.83170   0.86824   0.57408   0.29944
H          H       0.54466   0.01812   0.27354   0.09692
H          H       0.70108   0.07114   0.35089   0.09197
H          H       0.71961   0.10521   0.68490   0.09975
H          H       0.60644   0.95895   0.59088   0.10154
H          H       0.61827   0.12683   0.48501   0.11518
H          H       0.52011   0.97924   0.42495   0.09694
H          H       0.77996   0.97009   0.73078   0.10680
H          H       0.87487   0.04458   0.68913   0.09994
H          H       0.68086   0.39615   0.16473   0.28826
H          H       0.76076   0.34679   0.10919   0.30326
H          H       0.69174   0.45240   0.91145   0.25956
H          H       0.89538   0.76037   0.19646   0.29719
H          H       0.96362   0.70650   0.13167   0.29877
H          H       0.52626   0.25504   0.98165   0.09646
H          H       0.62956   0.27931   0.92865   0.09134
H          H       0.61421   0.57949   0.89480   0.09923
H          H       0.64741   0.63215   0.04086   0.10113
H          H       0.49109   0.35760   0.87298   0.11538
H          H       0.54056   0.44560   0.02040   0.09760
H          H       0.81000   0.76101   0.02988   0.10715
H          H       0.83006   0.64443   0.95532   0.09988
C          C       0.71854   0.33205   0.32116  -0.01367
C          C       0.83657   0.44317   0.40337  -0.08670
C          C       0.92191   0.61800   0.59645  -0.07236
C          C       0.87656   0.66091   0.67938  -0.00543
C          C       0.38655   0.98855   0.66746  -0.01310
C          C       0.39345   0.95959   0.55650  -0.08794
C          C       0.30404   0.97802   0.38231  -0.07243
C          C       0.21579   0.01806   0.33967  -0.00458
C          C       0.39832   0.67914   0.01170  -0.01203
C          C       0.43413   0.59717   0.04063  -0.08850
C          C       0.32611   0.40429   0.02205  -0.07004
C          C       0.19773   0.32142   0.98198  -0.00507
C          C       0.28145   0.66795   0.67884  -0.01366
C          C       0.16343   0.55682   0.59663  -0.08673
C          C       0.07809   0.38200   0.40355  -0.07236
C          C       0.12344   0.33909   0.32061  -0.00530
C          C       0.61345   0.01144   0.33253  -0.01342
C          C       0.60655   0.04040   0.44350  -0.08791
C          C       0.69596   0.02198   0.61769  -0.07258
C          C       0.78421   0.98194   0.66033  -0.00470
C          C       0.60168   0.32085   0.98829  -0.01175
C          C       0.56587   0.40282   0.95937  -0.08860
C          C       0.67389   0.59571   0.97795  -0.07010
C          C       0.80227   0.67858   0.01802  -0.00502
N          N       0.67775   0.28082   0.38456  -0.56934
N          N       0.81823   0.51660   0.49136  -0.31030
N          N       0.81040   0.56599   0.69297  -0.56080
N          N       0.39734   0.10355   0.71887  -0.57039
N          N       0.30169   0.97419   0.48339  -0.31121
N          N       0.24469   0.12672   0.43479  -0.56151
N          N       0.29393   0.61539   0.89688  -0.56922
N          N       0.32760   0.50926   0.02586  -0.31331
N          N       0.11790   0.30772   0.87346  -0.56100
N          N       0.32225   0.71917   0.61544  -0.56928
N          N       0.18177   0.48339   0.50864  -0.31042
N          N       0.18960   0.43400   0.30703  -0.56096
N          N       0.60266   0.89644   0.28113  -0.57010
N          N       0.69831   0.02580   0.51661  -0.31095
N          N       0.75531   0.87327   0.56520  -0.56145
N          N       0.70607   0.38460   0.10311  -0.56923
N          N       0.67240   0.49073   0.97413  -0.31328
N          N       0.88210   0.69227   0.12654  -0.56092
O          O       0.59278   0.43120   0.48185  -0.87376
O          O       0.41534   0.39395   0.32149  -0.76852
O          O       0.39256   0.33908   0.46824  -0.78174
O          O       0.43730   0.22114   0.32144  -0.75939
O          O       0.41150   0.57817   0.29292  -0.79485
O          O       0.30649   0.67185   0.21773  -0.78657
O          O       0.51045   0.79809   0.39414  -0.80150
O          O       0.33516   0.69088   0.40823  -0.81082
O          O       0.16209   0.04982   0.56893  -0.87404
O          O       0.02123   0.92747   0.60586  -0.76842
O          O       0.05372   0.12931   0.66064  -0.78374
O          O       0.21640   0.10147   0.77896  -0.76047
O          O       0.83366   0.71499   0.42108  -0.79532
O          O       0.63491   0.54607   0.32849  -0.78760
O          O       0.71146   0.59485   0.20134  -0.80047
O          O       0.64441   0.71742   0.30892  -0.81143
O          O       0.11121   0.51821   0.94963  -0.87391
O          O       0.09466   0.67910   0.07320  -0.76762
O          O       0.92499   0.53164   0.87083  -0.78291
O          O       0.11726   0.67901   0.90089  -0.75923
O          O       0.11965   0.70741   0.28619  -0.79456
O          O       0.08980   0.78256   0.45479  -0.78660
O          O       0.11647   0.60581   0.40419  -0.80080
O          O       0.92716   0.59189   0.28265  -0.81195
O          O       0.40722   0.56879   0.51815  -0.87349
O          O       0.58466   0.60604   0.67850  -0.76853
O          O       0.60744   0.66091   0.53176  -0.78176
O          O       0.56270   0.77885   0.67856  -0.75963
O          O       0.58850   0.42183   0.70708  -0.79513
O          O       0.69351   0.32814   0.78227  -0.78659
O          O       0.48955   0.20191   0.60586  -0.80138
O          O       0.66484   0.30911   0.59177  -0.81064
O          O       0.83791   0.95017   0.43107  -0.87406
O          O       0.97877   0.07252   0.39414  -0.76853
O          O       0.94628   0.87068   0.33936  -0.78353
O          O       0.78360   0.89853   0.22104  -0.76045
O          O       0.16634   0.28500   0.57892  -0.79534
O          O       0.36509   0.45392   0.67151  -0.78789
O          O       0.28854   0.40515   0.79866  -0.80056
O          O       0.35559   0.28257   0.69108  -0.81132
O          O       0.88879   0.48178   0.05036  -0.87414
O          O       0.90534   0.32089   0.92680  -0.76739
O          O       0.07501   0.46836   0.12916  -0.78282
O          O       0.88274   0.32098   0.09911  -0.75906
O          O       0.88035   0.29258   0.71381  -0.79445
O          O       0.91020   0.21743   0.54520  -0.78645
O          O       0.88353   0.39418   0.59580  -0.80090
O          O       0.07284   0.40810   0.71735  -0.81204

