data_crystal

_audit_creation_method 'AiiDA-DDEC plugin'

_cell_length_a         8.24559
_cell_length_b         8.68728
_cell_length_c        28.41281

_cell_angle_alpha     90.07888
_cell_angle_beta     90.00000
_cell_angle_gamma     90.00000

_symmetry_space_group_name_Hall 'P 1'
_symmetry_space_group_name_H-M  'P 1'

loop_
_symmetry_equiv_pos_as_xyz
 'x,y,z'

loop_
_atom_site_label
_atom_site_type_symbol
_atom_site_fract_x
_atom_site_fract_y
_atom_site_fract_z
_atom_site_charge
Gd         Gd      0.10707   0.57746   0.00614   2.08871
Gd         Gd      0.60706   0.42256   0.99386   2.08880
Gd         Gd      0.10758   0.92181   0.50594   2.08954
Gd         Gd      0.60758   0.07820   0.49406   2.08949
H          H       0.14568   0.49942   0.84564   0.11381
H          H       0.13277   0.43727   0.76005   0.11406
H          H       0.67030   0.30575   0.86394   0.13200
H          H       0.11416   0.17387   0.71463   0.11460
H          H       0.12332   0.12086   0.62831   0.11095
H          H       0.67906   0.37110   0.61019   0.12808
H          H       0.39964   0.15676   0.77678   0.11621
H          H       0.44540   0.32055   0.81307   0.10802
H          H       0.51125   0.13153   0.83011   0.10924
H          H       0.44401   0.56803   0.69757   0.11151
H          H       0.45880   0.40577   0.65870   0.11197
H          H       0.56430   0.58236   0.64565   0.09981
H          H       0.71187   0.75346   0.06522   0.05599
H          H       0.64569   0.50059   0.15435   0.11380
H          H       0.63278   0.56275   0.23994   0.11389
H          H       0.17030   0.69427   0.13605   0.13224
H          H       0.61417   0.82614   0.28537   0.11484
H          H       0.62333   0.87915   0.37169   0.11102
H          H       0.17906   0.62891   0.38981   0.12796
H          H       0.89965   0.84325   0.22322   0.11613
H          H       0.94540   0.67946   0.18693   0.10759
H          H       0.01125   0.86849   0.16988   0.10945
H          H       0.94401   0.43199   0.30243   0.11155
H          H       0.95880   0.59425   0.34130   0.11208
H          H       0.06430   0.41766   0.35435   0.09967
H          H       0.21186   0.24656   0.93478   0.05604
H          H       0.14593  -0.00359   0.34541   0.11468
H          H       0.13273   0.06022   0.26001   0.11389
H          H       0.67341   0.19568   0.36464   0.13219
H          H       0.11586   0.32640   0.21468   0.11568
H          H       0.12343   0.37782   0.12826   0.11024
H          H       0.67732   0.13084   0.11109   0.12703
H          H       0.40232   0.34585   0.27693   0.11592
H          H       0.44738   0.17984   0.31205   0.10740
H          H       0.50800   0.36834   0.33150   0.10896
H          H       0.44417   0.93222   0.19726   0.11241
H          H       0.46096   0.09588   0.15894   0.11199
H          H       0.56528   0.91875   0.14549   0.10052
H          H       0.71344   0.74201   0.56415   0.05583
H          H       0.64593   0.00360   0.65458   0.11486
H          H       0.63273   0.93979   0.73998   0.11389
H          H       0.17341   0.80434   0.63536   0.13223
H          H       0.61586   0.67362   0.78532   0.11568
H          H       0.62343   0.62220   0.87173   0.11006
H          H       0.17731   0.86917   0.88891   0.12713
H          H       0.90232   0.65417   0.72307   0.11568
H          H       0.94738   0.82017   0.68795   0.10759
H          H       0.00800   0.63167   0.66850   0.10894
H          H       0.94416   0.06780   0.80274   0.11260
H          H       0.96097   0.90413   0.84105   0.11174
H          H       0.06528   0.08126   0.85451   0.10057
H          H       0.21344   0.25801   0.43585   0.05596
C          C       0.91256   0.43512   0.91137   0.64928
C          C       0.90817   0.40506   0.85970  -0.03528
C          C       0.04002   0.44241   0.83074  -0.12106
C          C       0.03182   0.40758   0.78291  -0.11915
C          C       0.89408   0.33953   0.76261  -0.01842
C          C       0.76119   0.30286   0.79235   0.19885
C          C       0.76930   0.33572   0.84043  -0.23084
C          C       0.89370   0.30500   0.71165  -0.01393
C          C       0.02045   0.21945   0.69153  -0.12498
C          C       0.02558   0.18881   0.64336  -0.12273
C          C       0.90056   0.24322   0.61438  -0.02681
C          C       0.77364   0.33040   0.63358  -0.22865
C          C       0.77102   0.36333   0.68165   0.20134
C          C       0.89607   0.20395   0.56338   0.65880
C          C       0.48968   0.20879   0.80018  -0.18519
C          C       0.52380   0.50464   0.67379  -0.17854
C          C       0.82345   0.71255   0.04796   0.51450
C          C       0.41256   0.56489   0.08863   0.64892
C          C       0.40817   0.59495   0.14030  -0.03534
C          C       0.54002   0.55760   0.16925  -0.12094
C          C       0.53182   0.59244   0.21709  -0.11926
C          C       0.39408   0.66049   0.23738  -0.01845
C          C       0.26119   0.69715   0.20765   0.19903
C          C       0.26931   0.66429   0.15957  -0.23096
C          C       0.39370   0.69501   0.28835  -0.01392
C          C       0.52045   0.78056   0.30847  -0.12502
C          C       0.52559   0.81121   0.35663  -0.12256
C          C       0.40056   0.75680   0.38561  -0.02696
C          C       0.27364   0.66962   0.36641  -0.22872
C          C       0.27102   0.63668   0.31835   0.20127
C          C       0.39607   0.79606   0.43662   0.65874
C          C       0.98968   0.79122   0.19982  -0.18478
C          C       0.02380   0.49537   0.32620  -0.17879
C          C       0.32344   0.28747   0.95204   0.51472
C          C       0.91348   0.06116   0.41132   0.64973
C          C       0.90946   0.09296   0.35983  -0.03497
C          C       0.04094   0.05511   0.33076  -0.11991
C          C       0.03255   0.09101   0.28305  -0.11916
C          C       0.89548   0.16122   0.26307  -0.01871
C          C       0.76361   0.19976   0.29307   0.19959
C          C       0.77171   0.16491   0.34095  -0.23003
C          C       0.89481   0.19557   0.21210  -0.01390
C          C       0.02141   0.28079   0.19177  -0.12538
C          C       0.02565   0.31086   0.14357  -0.12215
C          C       0.89972   0.25758   0.11472  -0.02542
C          C       0.77314   0.17077   0.13415  -0.22881
C          C       0.77170   0.13725   0.18216   0.20084
C          C       0.89460   0.29720   0.06371   0.65897
C          C       0.49090   0.29342   0.30069  -0.18292
C          C       0.52465   0.99605   0.17382  -0.17922
C          C       0.82429   0.78461   0.54690   0.51591
C          C       0.41348   0.93885   0.58868   0.64953
C          C       0.40946   0.90706   0.64017  -0.03481
C          C       0.54094   0.94491   0.66923  -0.12007
C          C       0.53255   0.90900   0.71695  -0.11899
C          C       0.39548   0.83880   0.73693  -0.01912
C          C       0.26361   0.80026   0.70693   0.19978
C          C       0.27171   0.83510   0.65905  -0.23014
C          C       0.39481   0.80445   0.78790  -0.01367
C          C       0.52141   0.71923   0.80823  -0.12541
C          C       0.52565   0.68915   0.85643  -0.12226
C          C       0.39972   0.74244   0.88527  -0.02541
C          C       0.27314   0.82924   0.86585  -0.22895
C          C       0.27170   0.86276   0.81783   0.20080
C          C       0.39459   0.70281   0.93629   0.65880
C          C       0.99090   0.70659   0.69931  -0.18275
C          C       0.02465   0.00396   0.82618  -0.17932
C          C       0.32429   0.21538   0.45310   0.51617
O          O       0.03446   0.50527   0.92888  -0.67704
O          O       0.79280   0.38658   0.93572  -0.70097
O          O       0.01823   0.13479   0.54553  -0.69302
O          O       0.76901   0.23811   0.53973  -0.67419
O          O       0.63373   0.22766   0.77202  -0.16158
O          O       0.65756   0.45523   0.70238  -0.16226
O          O       0.80875   0.61466   0.01368  -0.71749
O          O       0.96083   0.75832   0.06106  -0.54712
O          O       0.53446   0.49474   0.07112  -0.67708
O          O       0.29280   0.61344   0.06428  -0.70055
O          O       0.51823   0.86522   0.45447  -0.69293
O          O       0.26901   0.76190   0.46027  -0.67446
O          O       0.13373   0.77236   0.22798  -0.16165
O          O       0.15757   0.54478   0.29762  -0.16215
O          O       0.30875   0.38535   0.98632  -0.71764
O          O       0.46083   0.24172   0.93893  -0.54745
O          O       0.03611   0.99211   0.42870  -0.67613
O          O       0.79286   0.10756   0.43571  -0.70169
O          O       0.01675   0.36622   0.04587  -0.69405
O          O       0.76724   0.26390   0.04012  -0.67356
O          O       0.63762   0.27902   0.27346  -0.16457
O          O       0.65818   0.04496   0.20267  -0.16266
O          O       0.80912   0.88630   0.51383  -0.71666
O          O       0.96174   0.73631   0.55908  -0.54990
O          O       0.53611   0.00790   0.57130  -0.67575
O          O       0.29286   0.89246   0.56429  -0.70175
O          O       0.51675   0.63380   0.95413  -0.69413
O          O       0.26723   0.73612   0.95988  -0.67324
O          O       0.13762   0.72100   0.72654  -0.16493
O          O       0.15818   0.95505   0.79733  -0.16224
O          O       0.30911   0.11371   0.48617  -0.71697
O          O       0.46174   0.26367   0.44092  -0.54969

