data_crystal

_audit_creation_method 'AiiDA-DDEC plugin'

_cell_length_a        10.95357
_cell_length_b        13.69799
_cell_length_c        31.25137

_cell_angle_alpha     90.04554
_cell_angle_beta     98.48134
_cell_angle_gamma     90.03161

_symmetry_space_group_name_Hall 'P 1'
_symmetry_space_group_name_H-M  'P 1'

loop_
_symmetry_equiv_pos_as_xyz
 'x,y,z'

loop_
_atom_site_label
_atom_site_type_symbol
_atom_site_fract_x
_atom_site_fract_y
_atom_site_fract_z
_atom_site_charge
Eu         Eu      0.93633   0.92224   0.54084   1.68002
Eu         Eu      0.06496   0.42162   0.95934   1.68515
Eu         Eu      0.06476   0.07854   0.45890   1.68718
Eu         Eu      0.93506   0.57827   0.04039   1.68318
H          H       0.78071   0.01318   0.35673   0.11951
H          H       0.63008   0.97019   0.29167   0.12284
H          H       0.44427   0.77599   0.36967   0.11379
H          H       0.59495   0.82268   0.43515   0.11908
H          H       0.77393   0.19879   0.88607   0.12618
H          H       0.61918   0.15054   0.82268   0.12147
H          H       0.82711   0.30829   0.73799   0.12262
H          H       0.97930   0.35813   0.80219   0.12994
H          H       0.14880   0.73396   0.52807   0.12679
H          H       0.27799   0.58430   0.53982   0.12004
H          H       0.47920   0.67147   0.43735   0.11500
H          H       0.34736   0.82198   0.42567   0.11868
H          H       0.21966   0.51443   0.14380   0.11905
H          H       0.37115   0.47063   0.20850   0.12263
H          H       0.55351   0.27581   0.12965   0.11356
H          H       0.40130   0.32275   0.06467   0.11846
H          H       0.22905   0.70145   0.61410   0.12510
H          H       0.38261   0.65165   0.67765   0.12175
H          H       0.17182   0.80692   0.76245   0.12342
H          H       0.02014   0.85638   0.69812   0.12994
H          H       0.85082   0.23383   0.97179   0.12772
H          H       0.72184   0.08392   0.96005   0.11986
H          H       0.52066   0.17129   0.06259   0.11512
H          H       0.65217   0.32219   0.07407   0.11902
H          H       0.22003   0.98613   0.64335   0.11949
H          H       0.37038   0.02956   0.70842   0.12279
H          H       0.55534   0.22428   0.63036   0.11362
H          H       0.40463   0.17749   0.56495   0.11932
H          H       0.22764   0.79958   0.11390   0.12112
H          H       0.38244   0.84746   0.17732   0.12111
H          H       0.17181   0.69282   0.26210   0.12336
H          H       0.01874   0.64430   0.19804   0.12981
H          H       0.85065   0.26678   0.47179   0.12865
H          H       0.72109   0.41653   0.46003   0.11989
H          H       0.52056   0.32910   0.56264   0.11453
H          H       0.65235   0.17845   0.57415   0.11916
H          H       0.78081   0.48630   0.85656   0.11947
H          H       0.63000   0.52923   0.79151   0.12273
H          H       0.44516   0.72386   0.86987   0.11314
H          H       0.59625   0.67704   0.93518   0.11932
H          H       0.77166   0.29957   0.38576   0.12580
H          H       0.61778   0.34876   0.32224   0.12196
H          H       0.82784   0.19262   0.23751   0.12358
H          H       0.97913   0.14265   0.30187   0.13034
H          H       0.14912   0.76580   0.02822   0.12668
H          H       0.27796   0.91569   0.04006   0.12043
H          H       0.47893   0.82920   0.93734   0.11853
H          H       0.34772   0.67838   0.92569   0.11923
C          C       0.20489   0.05775   0.56302   0.62014
C          C       0.30205   0.08111   0.60074  -0.01513
C          C       0.29415   0.03799   0.64113  -0.08385
C          C       0.37793   0.06235   0.67727  -0.12586
C          C       0.47221   0.13148   0.67372   0.13590
C          C       0.51795   0.82796   0.36739  -0.12383
C          C       0.60160   0.85330   0.40347  -0.09594
C          C       0.55502   0.16200   0.71007  -0.07638
C          C       0.97795   0.31059   0.88570   0.54852
C          C       0.88678   0.28014   0.84763  -0.00633
C          C       0.78489   0.22188   0.85356  -0.09658
C          C       0.69886   0.19486   0.81841  -0.12322
C          C       0.71378   0.22459   0.77604   0.13039
C          C       0.81567   0.28471   0.77037  -0.12815
C          C       0.90069   0.31188   0.80586  -0.09289
C          C       0.62890   0.19312   0.74035  -0.08344
C          C       0.16960   0.87981   0.46848   0.60180
C          C       0.24076   0.78686   0.47587  -0.01703
C          C       0.22026   0.71978   0.50805  -0.08879
C          C       0.29311   0.63647   0.51495  -0.12670
C          C       0.38815   0.61834   0.48976   0.13681
C          C       0.40663   0.68568   0.45691  -0.13321
C          C       0.33358   0.76857   0.45028  -0.09471
C          C       0.46508   0.53562   0.49718  -0.08579
C          C       0.79478   0.55662   0.93702   0.61876
C          C       0.69817   0.58046   0.89924  -0.01557
C          C       0.70644   0.53781   0.85878  -0.08279
C          C       0.62263   0.56216   0.82268  -0.12611
C          C       0.52824   0.63104   0.82640   0.13542
C          C       0.48025   0.32804   0.13221  -0.12539
C          C       0.39572   0.35353   0.09641  -0.09266
C          C       0.44514   0.66145   0.79014  -0.07619
C          C       0.02332   0.81110   0.61517   0.54627
C          C       0.11492   0.78017   0.65287  -0.00634
C          C       0.21750   0.72315   0.64675  -0.09562
C          C       0.30277   0.69565   0.68198  -0.12401
C          C       0.28653   0.72440   0.72437   0.13411
C          C       0.18413   0.78381   0.73010  -0.13049
C          C       0.09947   0.81087   0.69463  -0.09095
C          C       0.37100   0.69266   0.76004  -0.08312
C          C       0.82989   0.37989   0.03138   0.60032
C          C       0.75894   0.28682   0.02400  -0.01590
C          C       0.77946   0.21963   0.99183  -0.08949
C          C       0.70671   0.13617   0.98495  -0.12647
C          C       0.61167   0.11802   0.01017   0.13723
C          C       0.59314   0.18556   0.04300  -0.13402
C          C       0.66600   0.26860   0.04954  -0.09456
C          C       0.53473   0.03517   0.00286  -0.08596
C          C       0.79501   0.94230   0.43721   0.61854
C          C       0.69765   0.91905   0.39944  -0.01368
C          C       0.70621   0.96170   0.35901  -0.08288
C          C       0.62248   0.93736   0.32282  -0.12634
C          C       0.52793   0.86850   0.32634   0.13555
C          C       0.48199   0.17201   0.63262  -0.12351
C          C       0.39816   0.14672   0.59661  -0.09601
C          C       0.44507   0.83808   0.29000  -0.07513
C          C       0.01991   0.69021   0.11446   0.54971
C          C       0.11243   0.72044   0.15230  -0.00567
C          C       0.21564   0.77729   0.14642  -0.09394
C          C       0.30190   0.80406   0.18162  -0.12280
C          C       0.28629   0.77523   0.22405   0.13284
C          C       0.18340   0.71619   0.22969  -0.13004
C          C       0.09798   0.68965   0.19419  -0.09090
C          C       0.37116   0.80674   0.25972  -0.08356
C          C       0.83156   0.12172   0.53133   0.60160
C          C       0.75913   0.21407   0.52403  -0.01579
C          C       0.77921   0.28114   0.49179  -0.09081
C          C       0.70622   0.36432   0.48491  -0.12710
C          C       0.61137   0.38237   0.51019   0.13714
C          C       0.59299   0.31487   0.54302  -0.13230
C          C       0.66604   0.23199   0.54959  -0.09576
C          C       0.53435   0.46503   0.50286  -0.08652
C          C       0.20352   0.44368   0.06317   0.62427
C          C       0.30036   0.41955   0.10076  -0.01789
C          C       0.29338   0.46248   0.14127  -0.08200
C          C       0.37768   0.43782   0.17723  -0.12785
C          C       0.47173   0.36872   0.17340   0.13604
C          C       0.51872   0.67182   0.86750  -0.12424
C          C       0.60258   0.64643   0.90345  -0.09452
C          C       0.55512   0.33824   0.20961  -0.07695
C          C       0.97644   0.18869   0.38479   0.54742
C          C       0.88516   0.21981   0.34708  -0.00772
C          C       0.78301   0.27739   0.35314  -0.09508
C          C       0.69754   0.30464   0.31791  -0.12601
C          C       0.71347   0.27553   0.27554   0.13395
C          C       0.81565   0.21588   0.26985  -0.13164
C          C       0.90014   0.18859   0.30535  -0.08985
C          C       0.62901   0.30715   0.23982  -0.08257
C          C       0.17158   0.61959   0.96882   0.60036
C          C       0.24140   0.71316   0.97596  -0.01465
C          C       0.22058   0.78011   0.00820  -0.08988
C          C       0.29317   0.86362   0.01511  -0.12651
C          C       0.38809   0.88196   0.98987   0.13653
C          C       0.40655   0.81478   0.95691  -0.13512
C          C       0.33385   0.73178   0.95028  -0.09717
C          C       0.46493   0.96481   0.99725  -0.08557
O          O       0.11993   0.00028   0.57115  -0.63401
O          O       0.78823   0.90412   0.47397  -0.62743
O          O       0.05672   0.37685   0.88115  -0.58415
O          O       0.97037   0.27223   0.92273  -0.60123
O          O       0.07765   0.89556   0.48914  -0.69291
O          O       0.20172   0.94264   0.44249  -0.57657
O          O       0.87962   0.49889   0.92905  -0.63563
O          O       0.20927   0.40485   0.02637  -0.63257
O          O       0.94513   0.87708   0.62031  -0.57834
O          O       0.02940   0.77416   0.57771  -0.60386
O          O       0.92256   0.39546   0.01106  -0.69333
O          O       0.79638   0.44294   0.05701  -0.57269
O          O       0.88032  -0.00033   0.42907  -0.63824
O          O       0.21157   0.09597   0.52621  -0.62774
O          O       0.94310   0.62273   0.11924  -0.57890
O          O       0.02403   0.72908   0.07727  -0.60350
O          O       0.92518   0.10775   0.51127  -0.68944
O          O       0.79880   0.05780   0.55674  -0.57886
O          O       0.12023   0.50274   0.07126  -0.63589
O          O       0.78794   0.59524   0.97375  -0.62840
O          O       0.05507   0.12291   0.37962  -0.58108
O          O       0.96989   0.22538   0.42227  -0.60578
O          O       0.07827   0.60432   0.98887  -0.69420
O          O       0.20626   0.55616   0.94361  -0.57453

