data_crystal

_audit_creation_method 'AiiDA-DDEC plugin'

_cell_length_a        11.41286
_cell_length_b        13.50165
_cell_length_c        18.48650

_cell_angle_alpha     100.60466
_cell_angle_beta     89.93596
_cell_angle_gamma     115.51533

_symmetry_space_group_name_Hall 'P 1'
_symmetry_space_group_name_H-M  'P 1'

loop_
_symmetry_equiv_pos_as_xyz
 'x,y,z'

loop_
_atom_site_label
_atom_site_type_symbol
_atom_site_fract_x
_atom_site_fract_y
_atom_site_fract_z
_atom_site_charge
Zn         Zn      0.97602   0.39493   0.40563   0.82548
Zn         Zn      0.57917   0.60595   0.09525   0.82691
Zn         Zn      0.02398   0.60507   0.59438   0.82547
Zn         Zn      0.42083   0.39405   0.90475   0.82696
H          H       0.14977   0.63965   0.29924   0.11895
H          H       0.23983   0.79515   0.22765   0.09953
H          H       0.25461   0.03224   0.42129   0.11474
H          H       0.16347   0.87643   0.49266   0.12062
H          H       0.81957   0.34298   0.12962   0.10038
H          H       0.64966   0.20567   0.02946   0.09512
H          H       0.57511   0.94329   0.14906   0.11486
H          H       0.74426   0.08423   0.25074   0.11422
H          H       0.12499   0.29356   0.48193   0.10069
H          H       0.34227   0.29076   0.48117   0.12403
H          H       0.42357   0.47675   0.30446   0.13811
H          H       0.20256   0.47079   0.31402   0.10320
H          H       0.47879   0.22630   0.42150   0.11704
H          H       0.70551   0.24876   0.43252   0.09533
H          H       0.85122   0.55604   0.36981   0.09906
H          H       0.62983   0.54833   0.35691   0.13387
H          H       0.50983   0.36138   0.20040   0.11816
H          H       0.44575   0.20605   0.27177   0.09947
H          H       0.22237   0.96685   0.07816   0.11477
H          H       0.28591   0.12256   0.00694   0.12029
H          H       0.47598   0.65841   0.37191   0.10024
H          H       0.44391   0.79549   0.47158   0.09588
H          H       0.63202   0.05676   0.35084   0.11645
H          H       0.66009   0.91669   0.24949   0.11524
H          H       0.83322   0.70713   0.01889   0.10096
H          H       0.05258   0.70844   0.01875   0.12180
H          H       0.94469   0.52304   0.19570   0.13671
H          H       0.72999   0.52986   0.18680   0.09972
H          H       0.25510   0.77364   0.07811   0.11971
H          H       0.45897   0.75133   0.06705   0.09660
H          H       0.29196   0.44423   0.13002   0.09937
H          H       0.07836   0.45176   0.14313   0.13404
H          H       0.85023   0.36035   0.70077   0.11895
H          H       0.76018   0.20485   0.77235   0.09953
H          H       0.74540   0.96776   0.57871   0.11476
H          H       0.83653   0.12357   0.50734   0.12058
H          H       0.18043   0.65701   0.87039   0.10047
H          H       0.35034   0.79433   0.97054   0.09523
H          H       0.42489   0.05671   0.85094   0.11482
H          H       0.25574   0.91576   0.74926   0.11405
H          H       0.87501   0.70644   0.51807   0.10059
H          H       0.65773   0.70924   0.51883   0.12393
H          H       0.57643   0.52325   0.69554   0.13817
H          H       0.79745   0.52921   0.68599   0.10329
H          H       0.52122   0.77370   0.57850   0.11706
H          H       0.29450   0.75124   0.56748   0.09528
H          H       0.14879   0.44396   0.63019   0.09907
H          H       0.37018   0.45167   0.64309   0.13389
H          H       0.49018   0.63862   0.79961   0.11816
H          H       0.55425   0.79395   0.72823   0.09937
H          H       0.77764   0.03315   0.92184   0.11478
H          H       0.71409   0.87744   0.99306   0.12037
H          H       0.52402   0.34158   0.62810   0.10016
H          H       0.55609   0.20451   0.52842   0.09575
H          H       0.36799   0.94323   0.64916   0.11650
H          H       0.33991   0.08331   0.75052   0.11530
H          H       0.16678   0.29287   0.98111   0.10103
H          H       0.94742   0.29156   0.98126   0.12187
H          H       0.05531   0.47696   0.80430   0.13659
H          H       0.27001   0.47014   0.81320   0.09972
H          H       0.74490   0.22636   0.92190   0.11980
H          H       0.54104   0.24867   0.93295   0.09659
H          H       0.70804   0.55577   0.86999   0.09925
H          H       0.92164   0.54824   0.85688   0.13403
C          C       0.09445   0.65637   0.44102   0.57564
C          C       0.15059   0.74958   0.39959  -0.04201
C          C       0.17303   0.72599   0.32483  -0.08313
C          C       0.22212   0.81116   0.28537  -0.14587
C          C       0.24991   0.92166   0.32051   0.16804
C          C       0.23063   0.94583   0.39552  -0.14146
C          C       0.17998   0.85991   0.43470  -0.08989
C          C       0.88817   0.30267   0.25863   0.55147
C          C       0.79195   0.22033   0.19600  -0.01874
C          C       0.76667   0.25532   0.13312  -0.09644
C          C       0.67312   0.17954   0.07730  -0.15642
C          C       0.60418   0.06629   0.08269   0.16201
C          C       0.62944   0.03085   0.14530  -0.14104
C          C       0.72243   0.10789   0.20129  -0.09631
C          C       0.19459   0.33206   0.44352   0.08807
C          C       0.31547   0.33026   0.44204  -0.18244
C          C       0.40265   0.38365   0.39239   0.10007
C          C       0.36103   0.43411   0.34453  -0.18012
C          C       0.23836   0.43195   0.34958   0.10451
C          C       0.53483   0.38910   0.39275   0.10531
C          C       0.55840   0.30308   0.41218  -0.17219
C          C       0.68514   0.31448   0.41759   0.09800
C          C       0.76610   0.48570   0.38236   0.09500
C          C       0.64209   0.48095   0.37543  -0.17289
C          C       0.43638   0.34269   0.05775   0.57504
C          C       0.40010   0.25039   0.09987  -0.04124
C          C       0.44672   0.27471   0.17464  -0.08466
C          C       0.41130   0.18961   0.21410  -0.14348
C          C       0.32852   0.07852   0.17903   0.16865
C          C       0.28459   0.05366   0.10401  -0.14225
C          C       0.31927   0.13946   0.06489  -0.08966
C          C       0.58339   0.69772   0.24253   0.55494
C          C       0.57110   0.78056   0.30486  -0.02249
C          C       0.51096   0.74580   0.36802  -0.09472
C          C       0.49348   0.82135   0.42352  -0.15673
C          C       0.53796   0.93412   0.41757   0.15978
C          C       0.59876   0.96944   0.35477  -0.14240
C          C       0.61450   0.89268   0.29901  -0.09373
C          C       0.86329   0.66835   0.05717   0.08728
C          C       0.98569   0.66946   0.05816  -0.17984
C          C       0.01853   0.61609   0.10772   0.10039
C          C       0.92549   0.56572   0.15573  -0.17803
C          C       0.80529   0.56853   0.15109   0.10511
C          C       0.14528   0.61082   0.10711   0.10475
C          C       0.25643   0.69690   0.08753  -0.17465
C          C       0.37161   0.68562   0.08204   0.09520
C          C       0.27831   0.51441   0.11740   0.09735
C          C       0.15911   0.51909   0.12442  -0.17200
C          C       0.90556   0.34363   0.55898   0.57578
C          C       0.84941   0.25042   0.60041  -0.04197
C          C       0.82697   0.27400   0.67518  -0.08320
C          C       0.77789   0.18884   0.71463  -0.14575
C          C       0.75009   0.07834   0.67949   0.16814
C          C       0.76938   0.05416   0.60448  -0.14145
C          C       0.82002   0.14009   0.56530  -0.08998
C          C       0.11184   0.69733   0.74137   0.55154
C          C       0.20806   0.77967   0.80401  -0.01876
C          C       0.23333   0.74468   0.86689  -0.09649
C          C       0.32688   0.82046   0.92270  -0.15632
C          C       0.39583   0.93371   0.91731   0.16195
C          C       0.37056   0.96914   0.85470  -0.14096
C          C       0.27758   0.89211   0.79871  -0.09634
C          C       0.80541   0.66793   0.55648   0.08800
C          C       0.68453   0.66974   0.55796  -0.18234
C          C       0.59735   0.61635   0.60762   0.09986
C          C       0.63897   0.56589   0.65547  -0.18006
C          C       0.76164   0.56805   0.65043   0.10458
C          C       0.46517   0.61090   0.60725   0.10534
C          C       0.44160   0.69692   0.58782  -0.17224
C          C       0.31487   0.68551   0.58242   0.09794
C          C       0.23390   0.51430   0.61765   0.09496
C          C       0.35791   0.51905   0.62457  -0.17271
C          C       0.56363   0.65731   0.94225   0.57491
C          C       0.59991   0.74961   0.90013  -0.04118
C          C       0.55328   0.72529   0.82536  -0.08466
C          C       0.58870   0.81039   0.78590  -0.14352
C          C       0.67148   0.92148   0.82098   0.16862
C          C       0.71541   0.94634   0.89599  -0.14227
C          C       0.68073   0.86054   0.93511  -0.08957
C          C       0.41661   0.30228   0.75747   0.55491
C          C       0.42890   0.21944   0.69514  -0.02250
C          C       0.48904   0.25420   0.63198  -0.09476
C          C       0.50653   0.17865   0.57649  -0.15663
C          C       0.46204   0.06588   0.58243   0.15973
C          C       0.40124   0.03056   0.64523  -0.14233
C          C       0.38550   0.10732   0.70099  -0.09370
C          C       0.13672   0.33165   0.94283   0.08737
C          C       0.01431   0.33054   0.94184  -0.17992
C          C       0.98147   0.38391   0.89229   0.10042
C          C       0.07451   0.43428   0.84428  -0.17818
C          C       0.19472   0.43146   0.84891   0.10516
C          C       0.85473   0.38918   0.89289   0.10492
C          C       0.74357   0.30310   0.91247  -0.17469
C          C       0.62840   0.31438   0.91796   0.09536
C          C       0.72170   0.48559   0.88260   0.09746
C          C       0.84089   0.48091   0.87558  -0.17220
N          N       0.15684   0.38322   0.39883  -0.21161
N          N       0.78871   0.40556   0.40479  -0.22743
N          N       0.29651   0.01392   0.28502  -0.12515
N          N       0.50758   0.98311   0.02898  -0.13525
N          N       0.77353   0.61776   0.10219  -0.21147
N          N       0.38241   0.59457   0.09484  -0.22568
N          N       0.28314   0.98633   0.21455  -0.12569
N          N       0.52475   0.01693   0.47101  -0.13459
N          N       0.84316   0.61678   0.60118  -0.21147
N          N       0.21129   0.59444   0.59521  -0.22747
N          N       0.70349   0.98608   0.71498  -0.12531
N          N       0.49242   0.01689   0.97103  -0.13538
N          N       0.22647   0.38224   0.89781  -0.21144
N          N       0.61759   0.40543   0.90517  -0.22589
N          N       0.71686   0.01367   0.78545  -0.12560
N          N       0.47525   0.98307   0.52899  -0.13446
O          O       0.08123   0.56057   0.40773  -0.56118
O          O       0.96065   0.40082   0.25092  -0.56928
O          O       0.88654   0.26561   0.31860  -0.56068
O          O       0.06321   0.68077   0.50600  -0.55470
O          O       0.51887   0.43965   0.09049  -0.56446
O          O       0.55594   0.59971   0.25057  -0.57092
O          O       0.61934   0.73427   0.18238  -0.56179
O          O       0.38070   0.31598   0.99243  -0.55343
O          O       0.91877   0.43943   0.59227  -0.56128
O          O       0.03935   0.59918   0.74908  -0.56919
O          O       0.11346   0.73439   0.68140  -0.56088
O          O       0.93679   0.31923   0.49400  -0.55481
O          O       0.48113   0.56035   0.90952  -0.56452
O          O       0.44406   0.40029   0.74943  -0.57104
O          O       0.38067   0.26573   0.81762  -0.56168
O          O       0.61930   0.68402   0.00757  -0.55327

