data_crystal

_audit_creation_method 'AiiDA-DDEC plugin'

_cell_length_a        14.40460
_cell_length_b        14.41782
_cell_length_c        14.68657

_cell_angle_alpha     68.90709
_cell_angle_beta     68.94651
_cell_angle_gamma     67.73619

_symmetry_space_group_name_Hall 'P 1'
_symmetry_space_group_name_H-M  'P 1'

loop_
_symmetry_equiv_pos_as_xyz
 'x,y,z'

loop_
_atom_site_label
_atom_site_type_symbol
_atom_site_fract_x
_atom_site_fract_y
_atom_site_fract_z
_atom_site_charge
Ni         Ni      0.20604   0.24773   0.29407   0.22393
Ni         Ni      0.74768   0.70615   0.79385   0.22584
H          H       0.81055   0.48443   0.85942   0.10959
H          H       0.91384   0.30103   0.91889   0.10394
H          H       0.07266   0.21965   0.79358   0.11555
H          H       0.11710   0.32680   0.61631   0.10456
H          H       0.10700   0.47804   0.50630   0.09912
H          H       0.01117   0.59496   0.53445   0.09928
H          H       0.85258   0.80855   0.47677   0.11723
H          H       0.92272   0.90509   0.30034   0.10331
H          H       0.80290   0.07126   0.21747   0.11508
H          H       0.61975   0.13005   0.31617   0.10612
H          H       0.49564   0.12147   0.45626   0.09885
H          H       0.51992   0.02846   0.57239   0.09231
H          H       0.48162   0.84545   0.79095   0.11688
H          H       0.30826   0.92665   0.89363   0.10557
H          H       0.22867   0.81686   0.06268   0.11858
H          H       0.32698   0.63057   0.11695   0.11006
H          H       0.47280   0.50589   0.10874   0.09148
H          H       0.58769   0.52355   0.00902   0.09731
H          H       0.63545   0.03020   0.69677   0.11812
H          H       0.56576   0.20579   0.58989   0.10730
H          H       0.68744   0.28200   0.42895   0.11816
H          H       0.87123   0.17384   0.38227   0.10687
H          H       0.98609   0.02015   0.39392   0.09442
H          H       0.96263   0.90998   0.49791   0.09696
H          H       0.00275   0.70345   0.67209   0.11540
H          H       0.17934   0.60609   0.58740   0.10276
H          H       0.27228   0.43276   0.68997   0.11634
H          H       0.18654   0.37208   0.87131   0.10655
H          H       0.05188   0.37776   0.00173   0.09993
H          H       0.92709   0.46633   0.98788   0.09654
H          H       0.68672   0.63507   0.01775   0.11151
H          H       0.59310   0.57980   0.19957   0.10131
H          H       0.43712   0.71214   0.27759   0.11145
H          H       0.38393   0.89179   0.16868   0.10285
H          H       0.39079   0.00442   0.02141   0.09420
H          H       0.48321   0.97375   0.90732   0.09643
H          H       0.20479   0.50245   0.17129   0.11424
H          H       0.10718   0.67860   0.08584   0.10270
H          H       0.93393   0.77173   0.18799   0.11574
H          H       0.87302   0.68666   0.36980   0.11111
H          H       0.87865   0.55257   0.50033   0.10001
H          H       0.96678   0.42756   0.48677   0.09881
H          H       0.13423   0.18849   0.51763   0.11080
H          H       0.07907   0.09339   0.69883   0.10166
H          H       0.21132   0.93673   0.77631   0.11200
H          H       0.39122   0.88444   0.66735   0.10428
H          H       0.50335   0.89178   0.51879   0.09426
H          H       0.47189   0.98639   0.40592   0.09675
H          H       0.53157   0.13618   0.19650   0.11928
H          H       0.70665   0.06662   0.08895   0.10741
H          H       0.78234   0.18873   0.92795   0.11724
H          H       0.67381   0.37266   0.88162   0.10842
H          H       0.51971   0.48705   0.89407   0.09503
H          H       0.41005   0.46298  -0.00167   0.09662
H          H       0.34473   0.98329   0.29147   0.11762
H          H       0.42626   0.80917   0.39325   0.10638
H          H       0.31615   0.72851   0.56147   0.11811
H          H       0.12992   0.82628   0.61608   0.10876
H          H       0.00489   0.97319   0.60863   0.09246
H          H       0.02235   0.08797   0.50871   0.09845
H          H       0.98458   0.31024   0.36014   0.10898
H          H       0.80120   0.41384   0.41948   0.10410
H          H       0.72004   0.57279   0.29387   0.11446
H          H       0.82692   0.61665   0.11650   0.10535
H          H       0.97874   0.60602   0.00654   0.09914
H          H       0.09535   0.50965   0.03527   0.09818
H          H       0.30843   0.35267   0.97871   0.11711
H          H       0.40320   0.42303   0.80145   0.10298
H          H       0.56966   0.30388   0.71822   0.11530
H          H       0.62961   0.12113   0.81645   0.10561
H          H       0.62117   0.99560   0.95519   0.09888
H          H       0.53029   0.01918   0.07242   0.09301
C          C       0.90561   0.50691   0.70820   0.15852
C          C       0.87880   0.44639   0.80855  -0.17958
C          C       0.93651   0.34494   0.84093  -0.07149
C          C       0.02490   0.29891   0.77180  -0.18233
C          C       0.05130   0.35670   0.67419   0.00537
C          C       0.02471   0.51398   0.53716  -0.11884
C          C       0.69860   0.91112   0.49313   0.17209
C          C       0.80380   0.87901   0.43772  -0.18388
C          C       0.84215   0.93354   0.34054  -0.07021
C          C       0.77615   0.02607   0.29362  -0.18624
C          C       0.67506   0.05966   0.34664  -0.00082
C          C       0.52716   0.03956   0.49248  -0.11356
C          C       0.49923   0.69457   0.89442   0.16344
C          C       0.44427   0.80092   0.86302  -0.16620
C          C       0.34876   0.84531   0.92068  -0.06012
C          C       0.30335   0.78471   0.01476  -0.18181
C          C       0.35642   0.68240   0.04622   0.00792
C          C       0.50507   0.52978   0.02703  -0.11323
C          C       0.79159   0.00692   0.60374   0.17232
C          C       0.68493   0.06601   0.62784  -0.17128
C          C       0.64709   0.16253   0.56780  -0.05540
C          C       0.71388   0.20553   0.47751  -0.19056
C          C       0.81504   0.14733   0.45056   0.01402
C          C       0.96015   0.99195   0.47602  -0.11397
C          C       0.99620   0.59294   0.81558   0.15741
C          C       0.04606   0.62988   0.71296  -0.17271
C          C       0.14350   0.57535   0.66650  -0.07656
C          C       0.19643   0.47946   0.72317  -0.17859
C          C       0.14991   0.44404   0.82314   0.00059
C          C       0.00882   0.45916   0.97661  -0.11142
C          C       0.59031   0.79136   0.99403   0.15814
C          C       0.61989   0.68906   0.05432  -0.18699
C          C       0.56718   0.65894   0.15508  -0.07826
C          C       0.48043   0.73200   0.19913  -0.17917
C          C       0.44991   0.83120   0.14084  -0.01059
C          C       0.47221   0.96940   0.98643  -0.11650
C          C       0.09411   0.49623   0.31462   0.14727
C          C       0.13098   0.54575   0.21185  -0.17110
C          C       0.07634   0.64297   0.16502  -0.07635
C          C       0.98039   0.69596   0.22162  -0.17763
C          C       0.94495   0.64981   0.32175  -0.01229
C          C       0.96002   0.50913   0.47557  -0.12061
C          C       0.29057   0.09190   0.49351   0.15651
C          C       0.18829   0.12118   0.55385  -0.18670
C          C       0.15819   0.06771   0.65428  -0.07834
C          C       0.23129   0.98058   0.69807  -0.17952
C          C       0.33053   0.95046   0.63972  -0.01137
C          C       0.46841   0.97359   0.48516  -0.11848
C          C       0.50813   0.29242   0.10388   0.17529
C          C       0.56720   0.18573   0.12757  -0.17361
C          C       0.66344   0.14805   0.06711  -0.05765
C          C       0.70611   0.21510   0.97682  -0.18728
C          C       0.64769   0.31619   0.94993   0.01225
C          C       0.49202   0.46088   0.97619  -0.11563
C          C       0.19393  -0.00002   0.39474   0.16236
C          C       0.30038   0.94535   0.36322  -0.16467
C          C       0.34486   0.84946   0.42034  -0.06305
C          C       0.28409   0.80348   0.51392  -0.18058
C          C       0.18169   0.85633   0.54560   0.00936
C          C       0.02892   0.00531   0.52689  -0.11671
C          C       0.00693   0.40497   0.20879   0.15541
C          C       0.94649   0.37837   0.30922  -0.17821
C          C       0.84511   0.43640   0.34149  -0.07335
C          C       0.79913   0.52470   0.27218  -0.17928
C          C       0.85687   0.55092   0.17452   0.00411
C          C       0.01425   0.52375   0.03780  -0.11681
C          C       0.41158   0.19898   0.99463   0.16998
C          C       0.37872   0.30407   0.93929  -0.18261
C          C       0.43234   0.34263   0.84171  -0.07120
C          C       0.52486   0.27695   0.79452  -0.18676
C          C       0.55910   0.17594   0.84737  -0.00203
C          C       0.53968   0.02733   0.99265  -0.11443
S          S       0.83698   0.63214   0.66299  -0.29200
S          S       0.64870   0.84330   0.60985  -0.37080
S          S       0.61659   0.63630   0.82475  -0.34243
S          S       0.84292   0.89394   0.68020  -0.35600
S          S       0.87435   0.65755   0.87411  -0.34981
S          S       0.65444   0.83682   0.87152  -0.29409
S          S       0.15880   0.37458   0.37347  -0.34897
S          S       0.33645   0.15636   0.37134  -0.29168
S          S       0.39563   0.34358   0.18091  -0.35544
S          S       0.13564   0.11718   0.32499  -0.34164
S          S       0.13210   0.33628   0.16354  -0.29088
S          S       0.34488   0.14886   0.11190  -0.37147
N          N       0.99472   0.45802   0.64275   0.03757
N          N       0.63706   0.00523   0.44310   0.03682
N          N       0.45150   0.63854   0.98911   0.04621
N          N       0.85206   0.05058   0.50947   0.04311
N          N       0.05280   0.49782   0.86908   0.03784
N          N       0.50222   0.86066   0.04084   0.03538
N          N      -0.00100   0.55293   0.36803   0.06379
N          N       0.35985   0.00348   0.53999   0.03909
N          N       0.55131   0.35304   0.00949   0.04209
N          N       0.13785   0.95186   0.48914   0.04625
N          N       0.95818   0.49424   0.14332   0.03940
N          N       0.50528   0.13748   0.94400   0.03881

