data_crystal

_audit_creation_method 'AiiDA-DDEC plugin'

_cell_length_a        10.12059
_cell_length_b        16.26091
_cell_length_c        24.71941

_cell_angle_alpha     106.34624
_cell_angle_beta     93.12042
_cell_angle_gamma     104.24007

_symmetry_space_group_name_Hall 'P 1'
_symmetry_space_group_name_H-M  'P 1'

loop_
_symmetry_equiv_pos_as_xyz
 'x,y,z'

loop_
_atom_site_label
_atom_site_type_symbol
_atom_site_fract_x
_atom_site_fract_y
_atom_site_fract_z
_atom_site_charge
Co         Co      0.59710   0.15643   0.03806   0.82944
Co         Co      0.03609   0.65257   0.54104   0.82811
Co         Co      0.40290   0.84357   0.96194   0.82932
Co         Co      0.96391   0.34743   0.45896   0.82819
H          H       0.25403   0.99357   0.09756   0.12014
H          H       0.83080   0.00113   0.09734   0.10830
H          H       0.11324   0.17661   0.02866   0.12787
H          H       0.91032   0.98762   0.19544   0.11127
H          H       0.86553   0.86934   0.24241   0.10539
H          H       0.04717   0.71007   0.11387   0.10517
H          H       0.09359   0.82983   0.06707   0.12397
H          H       0.65509   0.49274   0.10167   0.13589
H          H       0.54747   0.33265   0.04341   0.11389
H          H       0.78699   0.24240   0.14224   0.10407
H          H       0.89346   0.39710   0.20815   0.13114
H          H       0.06727   0.53643   0.32982   0.13266
H          H       0.09297   0.54274   0.43196   0.11134
H          H       0.92046   0.75488   0.47733   0.10224
H          H       0.89660   0.76139   0.37823   0.12920
H          H       0.24494   0.87807   0.33135   0.38904
H          H       0.54105   0.67182   0.53208   0.12200
H          H       0.26403   0.48328   0.59400   0.11483
H          H       0.69353   0.49032   0.59799   0.11264
H          H       0.56317   0.32902   0.56703   0.12845
H          H       0.53614   0.21005   0.61373   0.11032
H          H       0.32850   0.35139   0.74043   0.10045
H          H       0.34753   0.46737   0.69196   0.11487
H          H       0.67814   0.26039   0.86339   0.11523
H          H       0.73311   0.25823   0.96210   0.10239
H          H       0.40886   0.03328   0.93974   0.11100
H          H       0.34127   0.02609   0.83995   0.12230
H          H       0.38868   0.88780   0.69820   0.13559
H          H       0.26343   0.73523   0.63465   0.10215
H          H       0.97342   0.83081   0.56573   0.10654
H          H       0.09586   0.98928   0.62169   0.13707
H          H       0.68732   0.40718   0.80960   0.39098
H          H       0.74597   0.00644   0.90244   0.12025
H          H       0.16920  -0.00113   0.90266   0.10835
H          H       0.88676   0.82339   0.97134   0.12764
H          H       0.08969   0.01238   0.80456   0.11120
H          H       0.13447   0.13066   0.75759   0.10543
H          H       0.95283   0.28993   0.88613   0.10522
H          H       0.90641   0.17017   0.93293   0.12385
H          H       0.34491   0.50726   0.89833   0.13582
H          H       0.45254   0.66735   0.95659   0.11389
H          H       0.21301   0.75760   0.85776   0.10420
H          H       0.10655   0.60290   0.79185   0.13119
H          H       0.93273   0.46358   0.67018   0.13272
H          H       0.90704   0.45727   0.56803   0.11138
H          H       0.07954   0.24512   0.52267   0.10222
H          H       0.10340   0.23861   0.62177   0.12914
H          H       0.75506   0.12193   0.66865   0.38899
H          H       0.45895   0.32818   0.46792   0.12182
H          H       0.73597   0.51673   0.40599   0.11494
H          H       0.30647   0.50968   0.40201   0.11266
H          H       0.43683   0.67098   0.43297   0.12828
H          H       0.46386   0.78995   0.38627   0.11039
H          H       0.67150   0.64862   0.25957   0.10060
H          H       0.65247   0.53263   0.30804   0.11491
H          H       0.32186   0.73961   0.13661   0.11513
H          H       0.26689   0.74177   0.03790   0.10236
H          H       0.59114   0.96673   0.06026   0.11112
H          H       0.65874   0.97391   0.16005   0.12233
H          H       0.61132   0.11220   0.30180   0.13570
H          H       0.73657   0.26477   0.36535   0.10230
H          H       0.02658   0.16920   0.43427   0.10653
H          H       0.90414   0.01073   0.37831   0.13702
H          H       0.31268   0.59283   0.19040   0.39094
C          C       0.33944   0.12581   0.05056   0.54919
C          C       0.19802   0.08905   0.06264  -0.02965
C          C       0.17060   0.02059   0.08787  -0.12924
C          C       0.03872   0.98915   0.10164   0.05790
C          C       0.93452   0.02600   0.08848  -0.13768
C          C       0.96016   0.09249   0.06163  -0.03839
C          C       0.09242   0.12448   0.04906  -0.09870
C          C       0.84674   0.12876   0.04615   0.54742
C          C       0.00885   0.91780   0.12905   0.08425
C          C       0.95636   0.78247   0.18196   0.04452
C          C       0.94125   0.92702   0.17773  -0.13312
C          C       0.91631   0.86074   0.20440  -0.12729
C          C       0.01909   0.77162   0.13198  -0.12838
C          C       0.04675   0.83880   0.10623  -0.12754
C          C       0.93266   0.70980   0.20837   0.06534
C          C       0.86799   0.62300   0.17634  -0.07264
C          C       0.85061   0.54925   0.19513   0.15080
C          C       0.95509   0.64477   0.28490   0.17517
C          C       0.97911   0.72091   0.26588  -0.15069
C          C       0.78529   0.45734   0.15903   0.08090
C          C       0.68717   0.43896   0.11176  -0.16777
C          C       0.62822   0.35104   0.07898   0.08675
C          C       0.76001   0.29984   0.13544   0.09324
C          C       0.81958   0.38544   0.17132  -0.16093
C          C       0.98385   0.65046   0.34554   0.07130
C          C       0.03755   0.58774   0.36153  -0.15678
C          C       0.05148   0.59054   0.41835   0.11024
C          C       0.95789   0.71076   0.44385   0.09027
C          C       0.94398   0.71338   0.38826  -0.17707
C          C       0.06076   0.81075   0.30381   0.59710
C          C       0.77390   0.62724   0.55499   0.55516
C          C       0.63229   0.58588   0.56473  -0.02857
C          C       0.52298   0.61771   0.55079  -0.10232
C          C       0.39033   0.57986   0.56088  -0.03687
C          C       0.36773   0.51152   0.58626  -0.13292
C          C       0.47656   0.47840   0.59968   0.05598
C          C       0.60805   0.51529   0.58796  -0.13293
C          C       0.27482   0.61379   0.54455   0.54444
C          C       0.45711   0.40643   0.62645   0.07844
C          C       0.51082   0.33351   0.60477  -0.12406
C          C       0.49563   0.26676   0.63085  -0.12570
C          C       0.43118   0.27311   0.68022   0.04640
C          C       0.37888   0.34619   0.70233  -0.14217
C          C       0.38978   0.41135   0.67501  -0.13146
C          C       0.41736   0.20122   0.70706   0.06429
C          C       0.46930   0.21509   0.76436  -0.14086
C          C       0.45188   0.14003   0.78442   0.17311
C          C       0.33085   0.04266   0.69715   0.15986
C          C       0.34875   0.11462   0.67652  -0.08664
C          C       0.49933   0.14484   0.84344   0.07731
C          C       0.61267   0.21016   0.87856  -0.17047
C          C       0.64512   0.20949   0.93381   0.08589
C          C       0.46501   0.08303   0.92156   0.10574
C          C       0.42748   0.07933   0.86601  -0.14771
C          C       0.25506   0.95108   0.66334   0.08129
C          C       0.29901   0.87794   0.66832  -0.16168
C          C       0.22941   0.79316   0.63340   0.09549
C          C       0.06948   0.84749   0.59348   0.08506
C          C       0.13677   0.93471   0.62523  -0.16809
C          C       0.53336   0.30897   0.80119   0.58740
C          C       0.66056   0.87419   0.94944   0.54942
C          C       0.80198   0.91095   0.93735  -0.02971
C          C       0.82940   0.97941   0.91213  -0.12926
C          C       0.96128   0.01085   0.89836   0.05801
C          C       0.06549   0.97400   0.91152  -0.13772
C          C       0.03984   0.90752   0.93837  -0.03832
C          C       0.90758   0.87553   0.95094  -0.09863
C          C       0.15326   0.87124   0.95385   0.54733
C          C       0.99116   0.08220   0.87095   0.08407
C          C       0.04365   0.21754   0.81804   0.04440
C          C       0.05875   0.07298   0.82227  -0.13302
C          C       0.08370   0.13927   0.79560  -0.12725
C          C       0.98091   0.22838   0.86801  -0.12833
C          C       0.95325   0.16121   0.89377  -0.12745
C          C       0.06734   0.29020   0.79163   0.06542
C          C       0.13201   0.37700   0.82366  -0.07287
C          C       0.14939   0.45075   0.80487   0.15097
C          C       0.04491   0.35523   0.71510   0.17514
C          C       0.02089   0.27910   0.73412  -0.15072
C          C       0.21471   0.54266   0.84097   0.08089
C          C       0.31283   0.56105   0.88824  -0.16793
C          C       0.37178   0.64896   0.92102   0.08659
C          C       0.23999   0.70017   0.86456   0.09330
C          C       0.18042   0.61456   0.82868  -0.16096
C          C       0.01616   0.34954   0.65446   0.07134
C          C       0.96245   0.41227   0.63847  -0.15694
C          C       0.94852   0.40946   0.58165   0.11042
C          C       0.04211   0.28924   0.55615   0.09020
C          C       0.05602   0.28662   0.61174  -0.17712
C          C       0.93925   0.18925   0.69619   0.59715
C          C       0.22610   0.37277   0.44501   0.55510
C          C       0.36771   0.41413   0.43527  -0.02846
C          C       0.47702   0.38229   0.44921  -0.10223
C          C       0.60967   0.42014   0.43912  -0.03691
C          C       0.63227   0.48848   0.41374  -0.13300
C          C       0.52344   0.52160   0.40031   0.05611
C          C       0.39195   0.48472   0.41203  -0.13301
C          C       0.72518   0.38621   0.45545   0.54439
C          C       0.54290   0.59357   0.37355   0.07836
C          C       0.48918   0.66649   0.39523  -0.12389
C          C       0.50437   0.73324   0.36915  -0.12576
C          C       0.56882   0.72690   0.31978   0.04651
C          C       0.62112   0.65381   0.29767  -0.14210
C          C       0.61022   0.58866   0.32499  -0.13176
C          C       0.58264   0.79879   0.29294   0.06420
C          C       0.53070   0.78492   0.23564  -0.14094
C          C       0.54812   0.85998   0.21558   0.17319
C          C       0.66915   0.95734   0.30285   0.15986
C          C       0.65125   0.88539   0.32348  -0.08681
C          C       0.50067   0.85516   0.15656   0.07732
C          C       0.38733   0.78984   0.12144  -0.17053
C          C       0.35488   0.79051   0.06619   0.08586
C          C       0.53499   0.91697   0.07844   0.10577
C          C       0.57252   0.92067   0.13399  -0.14766
C          C       0.74494   0.04892   0.33666   0.08132
C          C       0.70099   0.12207   0.33168  -0.16177
C          C       0.77060   0.20684   0.36660   0.09559
C          C       0.93052   0.15252   0.40652   0.08498
C          C       0.86323   0.06530   0.37477  -0.16816
C          C       0.46665   0.69103   0.19881   0.58753
N          N       0.89681   0.56188   0.25018  -0.29283
N          N       0.66567   0.28217   0.08973  -0.24008
N          N       0.38654   0.05696   0.75103  -0.28957
N          N       0.57136   0.14821   0.95574  -0.23886
N          N       0.11661   0.77727   0.59580  -0.24200
N          N       0.01170   0.65115   0.45931  -0.23814
N          N       0.10319   0.43812   0.74981  -0.29268
N          N       0.33433   0.71783   0.91027  -0.23985
N          N       0.61346   0.94304   0.24897  -0.28937
N          N       0.42864   0.85179   0.04426  -0.23877
N          N       0.88339   0.22274   0.40420  -0.24208
N          N       0.98830   0.34885   0.54069  -0.23809
O          O       0.43295   0.08728   0.06046  -0.55042
O          O       0.36723   0.19149   0.03170  -0.55107
O          O       0.72715   0.09627   0.06053  -0.55808
O          O       0.86647   0.18789   0.02172  -0.55779
O          O       0.15610   0.58332   0.56026  -0.55594
O          O       0.29305   0.67098   0.51851  -0.55713
O          O       0.80031   0.69627   0.53961  -0.56076
O          O       0.86755   0.58800   0.56327  -0.54977
O          O       0.19806   0.81762   0.30693  -0.46555
O          O       0.01329   0.87096   0.32856  -0.48018
O          O       0.65827   0.34435   0.78662  -0.46985
O          O       0.47997   0.35011   0.83879  -0.46983
O          O       0.56705   0.91273   0.93954  -0.55019
O          O       0.63277   0.80851   0.96829  -0.55152
O          O       0.27285   0.90373   0.93947  -0.55781
O          O       0.13353   0.81211   0.97828  -0.55801
O          O       0.84390   0.41668   0.43974  -0.55576
O          O       0.70695   0.32902   0.48149  -0.55734
O          O       0.19969   0.30374   0.46039  -0.56096
O          O       0.13245   0.41201   0.43673  -0.54956
O          O       0.80194   0.18238   0.69307  -0.46554
O          O       0.98671   0.12904   0.67144  -0.48025
O          O       0.34173   0.65566   0.21338  -0.46995
O          O       0.52003   0.64989   0.16121  -0.46987

