data_crystal

_audit_creation_method 'AiiDA-DDEC plugin'

_cell_length_a        14.02037
_cell_length_b        16.54334
_cell_length_c        16.28865

_cell_angle_alpha     106.82515
_cell_angle_beta     89.90759
_cell_angle_gamma     115.20668

_symmetry_space_group_name_Hall 'P 1'
_symmetry_space_group_name_H-M  'P 1'

loop_
_symmetry_equiv_pos_as_xyz
 'x,y,z'

loop_
_atom_site_label
_atom_site_type_symbol
_atom_site_fract_x
_atom_site_fract_y
_atom_site_fract_z
_atom_site_charge
Cd         Cd      0.04527   0.55503   0.90703   0.89776
Cd         Cd      0.49021   0.44490   0.59286   0.89773
Cd         Cd      0.95474   0.44497   0.09297   0.89769
Cd         Cd      0.50979   0.55510   0.40714   0.89779
H          H       0.25712   0.33287   0.48350   0.09722
H          H       0.36123   0.56626   0.22113   0.13156
H          H       0.07579   0.33322   0.98339   0.09703
H          H       0.74732   0.66767   0.01753   0.12408
H          H       0.06666   0.75841   0.30722   0.11437
H          H       0.31433   0.97370   0.60393   0.10700
H          H       0.38643   0.23868   0.44657   0.11901
H          H       0.75681   0.31484   0.43680   0.12241
H          H       0.30811   0.24147   0.19285   0.11420
H          H       0.93334   0.24159   0.69279   0.11433
H          H       0.68276   0.86396   0.13511   0.10245
H          H       0.38857   0.28168   0.82161   0.10186
H          H       0.44200   0.68530   0.06323   0.12291
H          H       0.73949   0.11928   0.06205   0.11614
H          H       0.65880   0.97356   0.10414   0.10708
H          H       0.31725   0.13604   0.86490   0.10251
H          H       0.63877   0.43374   0.77887   0.13151
H          H       0.35933   0.45564   0.82229   0.13363
H          H       0.25268   0.33233   0.98248   0.12403
H          H       0.40936   0.66473   0.54466   0.10041
H          H       0.90370   0.54445   0.67780   0.13378
H          H       0.92064   0.66793   0.51759   0.12361
H          H       0.74289   0.66712   0.51651   0.09716
H          H       0.18169   0.86405   0.63506   0.10263
H          H       0.82366   0.55578   0.18397   0.09736
H          H       0.17765   0.55751   0.21133   0.09823
H          H       0.21239   0.06584   0.14190   0.10660
H          H       0.29708   0.06541   0.39596   0.10583
H          H       0.51959   0.49214   0.83002   0.13238
H          H       0.64067   0.54436   0.17772   0.13361
H          H       0.62024   0.44277   0.28869   0.09735
H          H       0.97239   0.49200   0.33014   0.13250
H          H       0.61143   0.71832   0.17839   0.10185
H          H       0.05911   0.63597   0.51404   0.10199
H          H       0.70293   0.93459   0.60404   0.10559
H          H       0.14626   0.93401   0.35816   0.10699
H          H       0.26788   0.44419   0.31622   0.09783
H          H       0.07937   0.33207   0.48241   0.12345
H          H       0.42302   0.36419   0.98588   0.10264
H          H       0.37976   0.55722   0.71132   0.09758
H          H       0.14754   0.76156   0.05327   0.11913
H          H       0.48042   0.50786   0.16999   0.13250
H          H       0.68568   0.02630   0.39607   0.10698
H          H       0.82235   0.44249   0.78867   0.09825
H          H       0.26051   0.88072   0.93795   0.11621
H          H       0.24319   0.68516   0.56320   0.12242
H          H       0.79499   0.43395   0.27900   0.13122
H          H       0.85247   0.23844   0.94673   0.11920
H          H       0.62050   0.88058   0.43821   0.11608
H          H       0.78761   0.93415   0.85810   0.10675
H          H       0.37950   0.11942   0.56179   0.11600
H          H       0.57699   0.63580   0.01413   0.10283
H          H       0.09630   0.45555   0.32220   0.13375
H          H       0.23089   0.93478   0.10382   0.10711
H          H       0.92421   0.66678   0.01661   0.09716
H          H       0.10687   0.71841   0.67832   0.10129
H          H       0.94090   0.36403   0.48596   0.10202
H          H       0.20501   0.56605   0.72100   0.13130
H          H       0.55800   0.31470   0.93678   0.12282
H          H       0.61357   0.76132   0.55343   0.11892
H          H       0.34120   0.02644   0.89586   0.10705
H          H       0.73212   0.55581   0.68378   0.09786
H          H       0.17635   0.44422   0.81603   0.09727
H          H       0.81831   0.13595   0.36494   0.10281
H          H       0.89314   0.28159   0.32169   0.10139
H          H       0.59064   0.33527   0.45534   0.10027
H          H       0.74462   0.33514   0.95558   0.10093
H          H       0.85374   0.06599   0.64184   0.10697
H          H       0.76911   0.06522   0.89618   0.10719
H          H       0.69190   0.75853   0.80716   0.11438
H          H       0.02761   0.50800   0.66987   0.13256
H          H       0.25538   0.66486   0.04443   0.10090
C          C       0.12687   0.44995   0.60244   0.15090
C          C       0.25825   0.49682   0.36926   0.07576
C          C       0.36587   0.12167   0.62798  -0.09469
C          C       0.14837   0.89646   0.29176  -0.14256
C          C       0.12933   0.70459   0.83817   0.54528
C          C       0.14141   0.38343   0.03477   0.08857
C          C       0.75825   0.61689   0.46518   0.08768
C          C       0.78598   0.48661   0.33246  -0.17428
C          C       0.84516   0.42661   0.55660   0.14599
C          C       0.71754   0.37958   0.00285   0.09728
C          C       0.75487   0.36874   0.49322  -0.18382
C          C       0.34081   0.50400   0.87329  -0.18055
C          C       0.30996   0.04352   0.73761   0.06651
C          C       0.80158   0.49092   0.83748   0.08303
C          C       0.33786   0.62028   0.49734   0.09674
C          C       0.76141   0.50310   0.13089   0.07449
C          C       0.68948   0.49120   0.33749   0.08280
C          C       0.25197   0.10349   0.20830  -0.14207
C          C       0.24514   0.63126   0.50678  -0.18379
C          C       0.73338   0.04334   0.23768   0.06979
C          C       0.24448   0.87849   0.87185  -0.09395
C          C       0.31052   0.50880   0.66251   0.08265
C          C       0.41863   0.57351   0.94343   0.14836
C          C       0.62839   0.78656   0.22514  -0.10912
C          C       0.69562   0.79840   0.76359  -0.09441
C          C       0.43051   0.45821   0.10919  -0.11335
C          C       0.02768   0.45819   0.60910  -0.11258
C          C       0.66718   0.86806   0.20129  -0.14286
C          C       0.05436   0.64340   0.14769   0.55185
C          C       0.10287   0.79837   0.26364  -0.09523
C          C       0.20108   0.86817   0.70126  -0.14464
C          C       0.75220   0.94788   0.73497   0.06871
C          C       0.85164   0.10354   0.70824  -0.14251
C          C       0.05854   0.58665   0.45255  -0.12680
C          C       0.69005   0.95647   0.26239   0.06655
C          C       0.82165   0.20895   0.18904  -0.03015
C          C       0.26662   0.95666   0.76233   0.06981
C          C       0.70283   0.89687   0.64883  -0.13721
C          C       0.28246   0.62042   0.99716   0.09728
C          C       0.19558   0.94792   0.23498   0.06951
C          C       0.65102   0.79877   0.62031  -0.10479
C          C       0.79892   0.13183   0.29875  -0.14448
C          C       0.67686   0.54984   0.89747   0.15195
C          C       0.83686   0.49611   0.62671  -0.17889
C          C       0.85701   0.61652   0.46522  -0.18136
C          C       0.87314   0.55005   0.39757   0.15086
C          C       0.58137   0.42649   0.05657   0.14839
C          C       0.63413   0.87833   0.37203  -0.09453
C          C       0.35361   0.25156   0.32252  -0.05116
C          C       0.80442   0.05208   0.76502   0.06942
C          C       0.85860   0.61657   0.96524   0.08864
C          C       0.85234   0.20107   0.87977  -0.10583
C          C       0.61380   0.36858   0.99327  -0.18384
C          C       0.65920   0.49600   0.12671  -0.18060
C          C       0.89714   0.20163   0.73636  -0.09538
C          C       0.24175   0.38311   0.53482   0.08752
C          C       0.94146   0.41335   0.54745  -0.12700
C          C       0.33282   0.13194   0.79871  -0.14285
C          C       0.57515   0.70450   0.33839   0.54514
C          C       0.32848   0.04043   0.65194  -0.13938
C          C       0.42486   0.29550   0.66162   0.54501
C          C       0.14766   0.79893   0.12023  -0.10586
C          C       0.75949   0.61624   0.96518  -0.18294
C          C       0.56950   0.54179   0.89081  -0.11338
C          C       0.29717   0.10313   0.35118  -0.13720
C          C       0.94565   0.35660   0.85231   0.55191
C          C       0.19842   0.50908   0.16252   0.08302
C          C       0.74175   0.50318   0.63075   0.07571
C          C       0.70049   0.48636   0.83237  -0.17441
C          C       0.80632   0.10300   0.85127  -0.13851
C          C       0.30438   0.20160   0.23642  -0.09443
C          C       0.41030   0.35673   0.35244   0.55286
C          C       0.21402   0.51339   0.66754  -0.17437
C          C       0.58970   0.64327   0.64756   0.55285
C          C       0.34898   0.20122   0.37969  -0.10482
C          C       0.32314   0.45016   0.10253   0.15189
C          C       0.38620   0.63142   0.00674  -0.18376
C          C       0.61261   0.79090   0.31106  -0.02926
C          C       0.37161   0.21343   0.77487  -0.10899
C          C       0.67152   0.95957   0.34806  -0.13947
C          C       0.47181   0.41335   0.04741  -0.12891
C          C       0.17836   0.79105   0.81096  -0.03013
C          C       0.24051   0.38376   0.03482  -0.18277
C          C       0.16314   0.50389   0.37329  -0.17905
C          C       0.15822   0.78668   0.72508  -0.10751
C          C       0.52819   0.58665   0.95260  -0.12892
C          C       0.89763   0.25148   0.82247  -0.04941
C          C       0.29951   0.51363   0.16763  -0.17413
C          C       0.71163   0.04025   0.15211  -0.14078
C          C       0.75552   0.12151   0.12816  -0.09405
C          C       0.19368   0.89700   0.14873  -0.13857
C          C       0.74804   0.89651   0.79171  -0.14203
C          C       0.28837   0.95975   0.84790  -0.14060
C          C       0.64639   0.74843   0.67748  -0.05129
C          C       0.10237   0.74852   0.17753  -0.04947
C          C       0.14300   0.38348   0.53478  -0.18133
C          C       0.97232   0.54181   0.39090  -0.11259
C          C       0.15485   0.57339   0.44340   0.14584
C          C       0.84178   0.21332   0.27493  -0.10762
C          C       0.87067   0.29541   0.16183   0.54543
C          C       0.23859   0.49690   0.86911   0.07446
C          C       0.66215   0.37972   0.50266   0.09678
C          C       0.24780   0.05212   0.26504   0.06867
C          C       0.38739   0.20910   0.68894  -0.02931
N          N       0.34504   0.55433   0.42954  -0.23935
N          N       0.87991   0.55507   0.90264  -0.23405
N          N       0.32464   0.44461   0.59741  -0.23199
N          N       0.20932   0.55443   0.92932  -0.23868
N          N       0.79068   0.44557   0.07068  -0.23846
N          N       0.12009   0.44493   0.09736  -0.23425
N          N       0.65497   0.44567   0.57046  -0.23952
N          N       0.67536   0.55539   0.40259  -0.23226
O          O       0.54936   0.62447   0.28160  -0.58347
O          O       0.05148   0.59920   0.06774  -0.60130
O          O       0.54922   0.59900   0.56746  -0.60120
O          O       0.42917   0.28480   0.58085  -0.56342
O          O       0.41757   0.40045   0.29801  -0.55998
O          O       0.14546   0.71485   0.91872  -0.56368
O          O       0.07391   0.62485   0.78135  -0.58391
O          O       0.92609   0.37515   0.21865  -0.58381
O          O       0.85454   0.28515   0.08128  -0.56394
O          O       0.45065   0.37553   0.71841  -0.58328
O          O       0.57083   0.71520   0.41916  -0.56331
O          O       0.58244   0.59955   0.70199  -0.55971
O          O       0.01743   0.59968   0.20210  -0.55925
O          O       0.45078   0.40100   0.43254  -0.60102
O          O       0.98257   0.40032   0.79791  -0.55951
O          O       0.94852   0.40080   0.93226  -0.60120

