data_crystal

_audit_creation_method 'AiiDA-DDEC plugin'

_cell_length_a        11.09109
_cell_length_b        15.57743
_cell_length_c        19.25804

_cell_angle_alpha     98.06332
_cell_angle_beta     90.10383
_cell_angle_gamma     90.10791

_symmetry_space_group_name_Hall 'P 1'
_symmetry_space_group_name_H-M  'P 1'

loop_
_symmetry_equiv_pos_as_xyz
 'x,y,z'

loop_
_atom_site_label
_atom_site_type_symbol
_atom_site_fract_x
_atom_site_fract_y
_atom_site_fract_z
_atom_site_charge
Cd         Cd      0.44794   0.50121   0.25035   1.16162
Cd         Cd      0.46225   0.55566   0.92253   1.05770
Cd         Cd      0.53776   0.44435   0.07747   1.05776
Cd         Cd      0.55207   0.49879   0.74965   1.16176
Cd         Cd      0.46091   0.44306   0.57682   1.05414
Cd         Cd      0.53910   0.55694   0.42319   1.05426
H          H       0.76818   0.91302   0.26465   0.12321
H          H       0.18283   0.16261   0.45248   0.13175
H          H       0.06641   0.81921   0.51860   0.11797
H          H       0.12781   0.32941   0.22585   0.12337
H          H       0.29992   0.84922   0.26202   0.13740
H          H       0.59092   0.70736   0.73015   0.11368
H          H       0.86393   0.92994   0.87652   0.15353
H          H       0.01441   0.83103   0.67367   0.14961
H          H       0.23183   0.08699   0.73535   0.12295
H          H       0.75849   0.98785   0.41703   0.16406
H          H       0.71759   0.81687   0.35441   0.11848
H          H       0.27198   0.69624   0.60176   0.13367
H          H       0.70637   0.69923   0.51566   0.12028
H          H       0.06769   0.18038   0.98205   0.11805
H          H       0.98560   0.16898   0.32633   0.14980
H          H       0.31873   0.59990   0.69229   0.11968
H          H       0.87220   0.67059   0.77415   0.12324
H          H       0.18240   0.83692   0.04765   0.13161
H          H       0.68332   0.59932   0.19203   0.11858
H          H       0.31669   0.40068   0.80797   0.11878
H          H       0.86989   0.32695   0.72552   0.12330
H          H       0.98528   0.83085   0.17338   0.14950
H          H       0.03367   0.21545   0.69905   0.12217
H          H       0.24152   0.01216   0.58297   0.16427
H          H       0.29364   0.30078   0.48434   0.12033
H          H       0.72766   0.69613   0.10134   0.13343
H          H       0.27235   0.30387   0.89866   0.13351
H          H       0.93232   0.81962   0.01795   0.11811
H          H       0.23240   0.91309   0.76515   0.12338
H          H       0.24136   0.98823   0.91752   0.16464
H          H       0.13589   0.93042   0.37714   0.15399
H          H       0.69927   0.84864   0.76173   0.13890
H          H       0.70343   0.29957   0.98408   0.12101
H          H       0.96615   0.21565   0.19926   0.12156
H          H       0.01473   0.16916   0.82662   0.14952
H          H       0.77170   0.70489   0.99094   0.11078
H          H       0.93360   0.18079   0.48140   0.11792
H          H       0.22991   0.70734   0.49155   0.10949
H          H       0.86412   0.06958   0.62286   0.15388
H          H       0.81718   0.83739   0.54752   0.13194
H          H       0.41038   0.70931   0.23118   0.11313
H          H       0.28452   0.81717   0.85477   0.11817
H          H       0.68129   0.40011   0.30771   0.11996
H          H       0.81761   0.16309   0.95235   0.13164
H          H       0.28242   0.18313   0.64559   0.11839
H          H       0.13012   0.67305   0.27448   0.12327
H          H       0.77010   0.29267   0.50845   0.10942
H          H       0.76761   0.08691   0.23486   0.12321
H          H       0.72803   0.30376   0.39824   0.13372
H          H       0.75865   0.01178   0.08248   0.16433
H          H       0.03386   0.78436   0.80074   0.12169
H          H       0.22831   0.29512   0.00906   0.11092
H          H       0.71549   0.18283   0.14523   0.11802
H          H       0.70009   0.15079   0.73798   0.13727
H          H       0.96634   0.78456   0.30095   0.12212
H          H       0.13608   0.07006   0.12348   0.15393
H          H       0.29658   0.70043   0.01592   0.12082
H          H       0.58963   0.29070   0.76882   0.11319
H          H       0.30074   0.15137   0.23827   0.13887
H          H       0.40909   0.29264   0.26985   0.11383
C          C       0.25180   0.19051   0.82216   0.26067
C          C       0.70610   0.73057   0.56982  -0.06005
C          C       0.36169   0.73774   0.19108  -0.05452
C          C       0.86220   0.08357   0.37118   0.29413
C          C       0.29991   0.81529   0.20872  -0.20311
C          C       0.30548   0.29732   0.72143  -0.06384
C          C       0.29391   0.26944   0.43018  -0.06000
C          C       0.88473   0.29482   0.67237  -0.07130
C          C       0.29965   0.18539   0.29156  -0.20345
C          C       0.74714   0.15512   0.25068  -0.21410
C          C       0.69865   0.33147   0.29239  -0.05467
C          C       0.86218   0.91629   0.12848   0.29420
C          C       0.76482   0.14963   0.84306   0.26428
C          C       0.23509   0.14984   0.34318   0.26520
C          C       0.94135   0.97230   0.87508  -0.35408
C          C       0.25222   0.15532   0.75108  -0.21276
C          C       0.80963   0.31513   0.61830  -0.05678
C          C       0.57458   0.61106   0.60402   0.61123
C          C       0.23226   0.80869   0.08757  -0.21284
C          C       0.84604   0.99430   0.10174  -0.34396
C          C       0.29554   0.62521   0.36689   0.59684
C          C       0.81235   0.68174   0.88124  -0.05679
C          C       0.63988   0.73633   0.69048  -0.05615
C          C       0.13783   0.08371   0.87152   0.29406
C          C       0.27469   0.72165   0.65726  -0.20229
C          C       0.34489   0.35270   0.66886   0.57169
C          C       0.64158   0.69345   0.62104  -0.08178
C          C       0.84581   0.00549   0.39785  -0.34325
C          C       0.25287   0.84488   0.74932  -0.21400
C          C       0.13781   0.91643   0.62882   0.29405
C          C       0.05477   0.95035   0.89911   0.30062
C          C       0.57097   0.38656   0.89580   0.61447
C          C       0.36114   0.69519   0.12153  -0.08472
C          C       0.88686   0.70304   0.82729  -0.07098
C          C       0.05512   0.04969   0.60085   0.30110
C          C       0.11315   0.29696   0.17271  -0.07111
C          C       0.18766   0.31827   0.11876  -0.05658
C          C       0.30760   0.70321   0.77882  -0.06280
C          C       0.29168   0.37949   0.13365   0.59626
C          C       0.30137   0.66854   0.70761  -0.05464
C          C       0.05838   0.97242   0.37536  -0.35314
C          C       0.92932   0.94869   0.65037   0.30831
C          C       0.08084   0.21435   0.03472  -0.19762
C          C       0.98911   0.80822   0.91060   0.25607
C          C       0.72532   0.27835   0.34274  -0.20229
C          C       0.72567   0.72138   0.15687  -0.20095
C          C       0.02406   0.23368   0.15814  -0.20286
C          C       0.97525   0.23293   0.65792  -0.20334
C          C       0.69241   0.29680   0.22118  -0.06269
C          C       0.74779   0.84468   0.24892  -0.21270
C          C       0.01063   0.80853   0.41084   0.25672
C          C       0.07069   0.05132   0.34963   0.30841
C          C       0.70026   0.66809   0.20733  -0.05375
C          C       0.63832   0.26227   0.80893  -0.05489
C          C       0.63887   0.30482   0.87847  -0.08462
C          C       0.42543   0.38895   0.39598   0.61081
C          C       0.15398   0.00571   0.89826  -0.34393
C          C       0.92920   0.05134   0.84959   0.30895
C          C       0.08057   0.78630   0.46574  -0.19899
C          C       0.70833   0.62052   0.86635   0.59646
C          C       0.28154   0.79146   0.79928  -0.06624
C          C       0.72004   0.79116   0.29893  -0.06821
C          C       0.11528   0.70519   0.32763  -0.07129
C          C       0.94524   0.04965   0.10089   0.30046
C          C       0.83078   0.72217   0.95016  -0.07225
C          C       0.76775   0.19132   0.91244  -0.21243
C          C       0.82941   0.27566   0.54929  -0.06782
C          C       0.35843   0.30656   0.37896  -0.08162
C          C       0.25190   0.80964   0.67821   0.26089
C          C       0.15420   0.99451   0.60215  -0.34292
C          C       0.19038   0.68488   0.38171  -0.05733
C          C       0.97387   0.89199   0.15314  -0.37151
C          C       0.94163   0.02758   0.62464  -0.35337
C          C       0.70385   0.26831   0.92990  -0.05656
C          C       0.42904   0.61345   0.10420   0.61429
C          C       0.76492   0.85016   0.65682   0.26507
C          C       0.05866   0.02771   0.12492  -0.35382
C          C       0.71847   0.20855   0.20072  -0.06629
C          C       0.91944   0.21370   0.53426  -0.19875
C          C       0.02476   0.76707   0.34208  -0.20354
C          C       0.23520   0.85038   0.15694   0.26452
C          C       0.65247   0.35197   0.16868   0.57527
C          C       0.65512   0.64730   0.33114   0.57215
C          C       0.69453   0.70269   0.27857  -0.06419
C          C       0.02614   0.10801   0.84686  -0.37133
C          C       0.23173   0.19153   0.41257  -0.21188
C          C       0.74822   0.80950   0.17784   0.26064
C          C       0.70010   0.18471   0.79128  -0.20293
C          C       0.01090   0.19178   0.08940   0.25630
C          C       0.27434   0.27862   0.84313  -0.20093
C          C       0.02604   0.89210   0.65331  -0.37156
C          C       0.29975   0.33192   0.79267  -0.05376
C          C       0.91917   0.78565   0.96528  -0.19735
C          C       0.70447   0.37479   0.63311   0.59704
C          C       0.36014   0.26368   0.30952  -0.05609
C          C       0.70036   0.81461   0.70844  -0.20334
C          C       0.16924   0.27784   0.04984  -0.07210
C          C       0.74811   0.19036   0.32179   0.26106
C          C       0.97397   0.10791   0.34669  -0.37125
C          C       0.97595   0.76632   0.84186  -0.20281
C          C       0.76828   0.80847   0.58743  -0.21169
C          C       0.27997   0.20885   0.70107  -0.06830
C          C       0.07081   0.94866   0.15041   0.30864
C          C       0.94489   0.95032   0.39915   0.30089
C          C       0.29616   0.73170   0.07010  -0.05636
C          C       0.34754   0.64804   0.83132   0.57550
C          C       0.98938   0.19147   0.58916   0.25649
C          C       0.17061   0.72435   0.45071  -0.06728
O          O       0.31973   0.59885   0.30261  -0.58608
O          O       0.68505   0.59348   0.80203  -0.58437
O          O       0.61775   0.56915   0.30952  -0.61181
O          O       0.47306   0.42471   0.34673  -0.60594
O          O       0.52695   0.57530   0.65327  -0.60624
O          O       0.76320   0.86120   0.12514  -0.21311
O          O       0.47359   0.57573   0.15331  -0.60830
O          O       0.38768   0.57081   0.80948  -0.61418
O          O       0.92453   0.87410   0.42670  -0.21908
O          O       0.64629   0.39212   0.57963  -0.57708
O          O       0.18271   0.06931   0.32283  -0.21039
O          O       0.44050   0.42680   0.45931  -0.59851
O          O       0.34560   0.67588   0.89654  -0.53987
O          O       0.55951   0.57321   0.54069  -0.59870
O          O       0.92529   0.12574   0.07326  -0.21854
O          O       0.44791   0.57825   0.04062  -0.60090
O          O       0.34979   0.39746   0.08032  -0.57940
O          O       0.55210   0.42175   0.95938  -0.60094
O          O       0.31496   0.40652   0.19797  -0.58435
O          O       0.76373   0.13894   0.37468  -0.21379
O          O       0.34539   0.32380   0.60376  -0.53840
O          O       0.07548   0.12590   0.57331  -0.21875
O          O       0.65441   0.32412   0.10346  -0.53995
O          O       0.23629   0.86107   0.62532  -0.21334
O          O       0.18273   0.93069   0.17728  -0.21014
O          O       0.23681   0.13880   0.87486  -0.21292
O          O       0.38226   0.43085   0.69048  -0.61152
O          O       0.61233   0.42920   0.19052  -0.61370
O          O       0.81728   0.06931   0.82272  -0.21077
O          O       0.65022   0.60255   0.91968  -0.57961
O          O       0.52642   0.42428   0.84669  -0.60848
O          O       0.68028   0.40116   0.69739  -0.58610
O          O       0.35372   0.60789   0.42037  -0.57683
O          O       0.65462   0.67621   0.39625  -0.53832
O          O       0.81730   0.93070   0.67717  -0.21021
O          O       0.07472   0.87426   0.92675  -0.21815

