data_crystal

_audit_creation_method 'AiiDA-DDEC plugin'

_cell_length_a        18.59808
_cell_length_b        18.59819
_cell_length_c        18.80880

_cell_angle_alpha     90.00000
_cell_angle_beta     90.00000
_cell_angle_gamma     119.97003

_symmetry_space_group_name_Hall 'P 1'
_symmetry_space_group_name_H-M  'P 1'

loop_
_symmetry_equiv_pos_as_xyz
 'x,y,z'

loop_
_atom_site_label
_atom_site_type_symbol
_atom_site_fract_x
_atom_site_fract_y
_atom_site_fract_z
_atom_site_charge
Cu         Cu      0.47805   0.52195   0.94730   0.90897
Cu         Cu      0.47816   0.95635   0.94709   0.91543
Cu         Cu      0.04365   0.52185   0.94709   0.91551
Cu         Cu      0.52195   0.47805   0.44729   0.90912
Cu         Cu      0.52185   0.04365   0.44708   0.91558
Cu         Cu      0.95636   0.47815   0.44708   0.91568
Cu         Cu      0.52195   0.47805   0.05271   0.90903
Cu         Cu      0.95636   0.47815   0.05292   0.91550
Cu         Cu      0.52185   0.04365   0.05292   0.91544
Cu         Cu      0.47805   0.52195   0.55270   0.90913
Cu         Cu      0.04365   0.52185   0.55291   0.91550
Cu         Cu      0.47816   0.95635   0.55291   0.91543
H          H       0.29315   0.35357   0.17536   0.13086
H          H       0.64665   0.93921   0.17544   0.13046
H          H       0.06072   0.70725   0.17525   0.13053
H          H       0.70686   0.64643   0.67535   0.13068
H          H       0.35335   0.06079   0.67544   0.13047
H          H       0.93929   0.29275   0.67525   0.13071
H          H       0.35357   0.29315   0.82464   0.13086
H          H       0.93921   0.64665   0.82456   0.13080
H          H       0.70725   0.06072   0.82475   0.13064
H          H       0.64644   0.70685   0.32464   0.13098
H          H       0.06079   0.35336   0.32456   0.13058
H          H       0.29276   0.93928   0.32475   0.13051
H          H       0.70686   0.64643   0.82464   0.13081
H          H       0.35335   0.06079   0.82456   0.13065
H          H       0.93929   0.29275   0.82475   0.13080
H          H       0.29315   0.35357   0.32464   0.13092
H          H       0.64665   0.93921   0.32456   0.13048
H          H       0.06072   0.70725   0.32475   0.13054
H          H       0.64644   0.70685   0.17536   0.13095
H          H       0.06079   0.35336   0.17544   0.13050
H          H       0.29276   0.93928   0.17525   0.13059
H          H       0.35357   0.29315   0.67535   0.13079
H          H       0.93921   0.64665   0.67544   0.13065
H          H       0.70725   0.06072   0.67525   0.13062
H          H       0.24023   0.48056   0.01059   0.14040
H          H       0.51945   0.75977   0.01059   0.14031
H          H       0.24037   0.75963   0.01038   0.13997
H          H       0.75977   0.51945   0.51059   0.14034
H          H       0.48056   0.24023   0.51059   0.14037
H          H       0.75964   0.24037   0.51038   0.13998
H          H       0.48056   0.24023   0.98940   0.14022
H          H       0.75977   0.51945   0.98940   0.14023
H          H       0.75964   0.24037   0.98962   0.13976
H          H       0.51945   0.75977   0.48940   0.14027
H          H       0.24023   0.48056   0.48940   0.14034
H          H       0.24037   0.75963   0.48962   0.13992
H          H       0.07912   0.25255   0.25000   0.11558
H          H       0.74751   0.82599   0.25000   0.11546
H          H       0.17377   0.92103   0.25000   0.11529
H          H       0.92088   0.74744   0.75000   0.11580
H          H       0.25249   0.17401   0.75000   0.11518
H          H       0.82624   0.07897   0.75000   0.11553
H          H       0.25256   0.07912   0.75000   0.11564
H          H       0.82599   0.74751   0.75000   0.11505
H          H       0.92104   0.17377   0.75000   0.11554
H          H       0.74745   0.92088   0.25000   0.11560
H          H       0.17401   0.25249   0.25000   0.11525
H          H       0.07897   0.82623   0.25000   0.11520
C          C       0.27510   0.41996   0.09027  -0.02685
C          C       0.25065   0.37126   0.15209  -0.14096
C          C       0.35827   0.44786   0.05799   0.58562
C          C       0.57998   0.85491   0.09045  -0.02753
C          C       0.62882   0.87899   0.15218  -0.14162
C          C       0.55200   0.91033   0.05850   0.58498
C          C       0.14508   0.72495   0.09016  -0.02568
C          C       0.12093   0.74954   0.15197  -0.14077
C          C       0.08977   0.64172   0.05800   0.58441
C          C       0.72491   0.58004   0.59026  -0.02702
C          C       0.74936   0.62873   0.65208  -0.14118
C          C       0.64174   0.55214   0.55798   0.58556
C          C       0.42002   0.14509   0.59045  -0.02732
C          C       0.37119   0.12101   0.65218  -0.14165
C          C       0.44800   0.08967   0.55850   0.58474
C          C       0.85492   0.27505   0.59015  -0.02575
C          C       0.87908   0.25046   0.65196  -0.14063
C          C       0.91023   0.35827   0.55798   0.58449
C          C       0.41996   0.27510   0.90973  -0.02695
C          C       0.37127   0.25065   0.84791  -0.14111
C          C       0.44786   0.35826   0.94202   0.58588
C          C       0.85492   0.57998   0.90954  -0.02740
C          C       0.87900   0.62881   0.84782  -0.14176
C          C       0.91033   0.55200   0.94150   0.58469
C          C       0.72495   0.14508   0.90984  -0.02570
C          C       0.74955   0.12093   0.84803  -0.14057
C          C       0.64173   0.08978   0.94201   0.58454
C          C       0.58004   0.72490   0.40973  -0.02695
C          C       0.62874   0.74935   0.34791  -0.14091
C          C       0.55214   0.64173   0.44201   0.58572
C          C       0.14509   0.42002   0.40954  -0.02754
C          C       0.12101   0.37119   0.34782  -0.14172
C          C       0.08967   0.44800   0.44150   0.58479
C          C       0.27506   0.85492   0.40984  -0.02570
C          C       0.25046   0.87907   0.34803  -0.14050
C          C       0.35829   0.91023   0.44200   0.58419
C          C       0.72491   0.58004   0.90973  -0.02705
C          C       0.74936   0.62873   0.84791  -0.14115
C          C       0.64174   0.55214   0.94202   0.58595
C          C       0.42002   0.14509   0.90954  -0.02739
C          C       0.37119   0.12101   0.84782  -0.14175
C          C       0.44800   0.08967   0.94150   0.58471
C          C       0.85492   0.27505   0.90984  -0.02583
C          C       0.87908   0.25046   0.84803  -0.14057
C          C       0.91023   0.35827   0.94201   0.58465
C          C       0.27510   0.41996   0.40973  -0.02695
C          C       0.25065   0.37126   0.34791  -0.14098
C          C       0.35827   0.44786   0.44201   0.58562
C          C       0.57998   0.85491   0.40954  -0.02759
C          C       0.62882   0.87899   0.34782  -0.14150
C          C       0.55200   0.91033   0.44150   0.58486
C          C       0.14508   0.72495   0.40984  -0.02575
C          C       0.12093   0.74954   0.34803  -0.14070
C          C       0.08977   0.64172   0.44200   0.58449
C          C       0.58004   0.72490   0.09026  -0.02693
C          C       0.62874   0.74935   0.15209  -0.14096
C          C       0.55214   0.64173   0.05799   0.58581
C          C       0.14509   0.42002   0.09045  -0.02749
C          C       0.12101   0.37119   0.15218  -0.14169
C          C       0.08967   0.44800   0.05850   0.58489
C          C       0.27506   0.85492   0.09016  -0.02561
C          C       0.25046   0.87907   0.15197  -0.14072
C          C       0.35829   0.91023   0.05800   0.58420
C          C       0.41996   0.27510   0.59026  -0.02690
C          C       0.37127   0.25065   0.65208  -0.14117
C          C       0.44786   0.35826   0.55798   0.58548
C          C       0.85492   0.57998   0.59045  -0.02722
C          C       0.87900   0.62881   0.65218  -0.14174
C          C       0.91033   0.55200   0.55850   0.58452
C          C       0.72495   0.14508   0.59015  -0.02570
C          C       0.74955   0.12093   0.65196  -0.14075
C          C       0.64173   0.08978   0.55798   0.58437
C          C       0.17304   0.34557   0.18297   0.11503
C          C       0.22180   0.44352   0.05882  -0.09869
C          C       0.65443   0.82696   0.18297   0.11506
C          C       0.55649   0.77820   0.05882  -0.09864
C          C       0.17290   0.82710   0.18288   0.11379
C          C       0.22185   0.77816   0.05862  -0.09905
C          C       0.82696   0.65443   0.68297   0.11514
C          C       0.77820   0.55648   0.55882  -0.09840
C          C       0.34557   0.17304   0.68297   0.11514
C          C       0.44352   0.22180   0.55882  -0.09842
C          C       0.82710   0.17290   0.68288   0.11382
C          C       0.77816   0.22184   0.55861  -0.09916
C          C       0.34557   0.17304   0.81703   0.11517
C          C       0.44352   0.22180   0.94118  -0.09851
C          C       0.82696   0.65443   0.81703   0.11516
C          C       0.77820   0.55648   0.94118  -0.09849
C          C       0.82710   0.17290   0.81711   0.11373
C          C       0.77816   0.22184   0.94138  -0.09929
C          C       0.65443   0.82696   0.31703   0.11499
C          C       0.55649   0.77820   0.44118  -0.09868
C          C       0.17304   0.34557   0.31703   0.11507
C          C       0.22180   0.44352   0.44118  -0.09862
C          C       0.17290   0.82710   0.31711   0.11375
C          C       0.22185   0.77816   0.44138  -0.09909
C          C       0.14684   0.29305   0.25000  -0.24661
C          C       0.70695   0.85316   0.25000  -0.24665
C          C       0.14667   0.85333   0.25000  -0.24669
C          C       0.85317   0.70695   0.75000  -0.24675
C          C       0.29305   0.14684   0.75000  -0.24673
C          C       0.85333   0.14667   0.75000  -0.24704
O          O       0.37061   0.48013   0.99587  -0.54112
O          O       0.41084   0.43816   0.09466  -0.53586
O          O       0.52003   0.89085   0.99622  -0.54452
O          O       0.56134   0.97214   0.09567  -0.53486
O          O       0.10925   0.62931   0.99570  -0.54336
O          O       0.02794   0.58913   0.09505  -0.53611
O          O       0.62940   0.51987   0.49586  -0.54070
O          O       0.58916   0.56184   0.59465  -0.53621
O          O       0.47997   0.10915   0.49622  -0.54447
O          O       0.43867   0.02786   0.59567  -0.53488
O          O       0.89075   0.37069   0.49569  -0.54328
O          O       0.97207   0.41087   0.59503  -0.53626
O          O       0.48013   0.37060   0.00414  -0.54126
O          O       0.43817   0.41084   0.90535  -0.53591
O          O       0.89085   0.52003   0.00377  -0.54479
O          O       0.97214   0.56133   0.90433  -0.53436
O          O       0.62931   0.10925   0.00430  -0.54357
O          O       0.58913   0.02793   0.90497  -0.53595
O          O       0.51987   0.62939   0.50413  -0.54121
O          O       0.56183   0.58916   0.40534  -0.53580
O          O       0.10915   0.47997   0.50377  -0.54446
O          O       0.02786   0.43867   0.40433  -0.53468
O          O       0.37069   0.89076   0.50430  -0.54341
O          O       0.41087   0.97206   0.40495  -0.53581
O          O       0.62940   0.51987   0.00413  -0.54122
O          O       0.58916   0.56184   0.90535  -0.53598
O          O       0.47997   0.10915   0.00377  -0.54470
O          O       0.43867   0.02786   0.90433  -0.53453
O          O       0.89075   0.37069   0.00430  -0.54365
O          O       0.97207   0.41087   0.90497  -0.53597
O          O       0.37061   0.48013   0.50413  -0.54117
O          O       0.41084   0.43817   0.40534  -0.53581
O          O       0.52003   0.89085   0.50377  -0.54448
O          O       0.56133   0.97214   0.40433  -0.53471
O          O       0.10925   0.62931   0.50430  -0.54347
O          O       0.02794   0.58913   0.40495  -0.53602
O          O       0.51987   0.62939   0.99587  -0.54117
O          O       0.56183   0.58916   0.09466  -0.53595
O          O       0.10915   0.47997   0.99622  -0.54449
O          O       0.02786   0.43867   0.09567  -0.53476
O          O       0.37069   0.89076   0.99570  -0.54336
O          O       0.41087   0.97206   0.09505  -0.53591
O          O       0.48013   0.37060   0.49586  -0.54071
O          O       0.43817   0.41084   0.59465  -0.53617
O          O       0.89085   0.52003   0.49622  -0.54453
O          O       0.97214   0.56133   0.59567  -0.53460
O          O       0.62931   0.10925   0.49569  -0.54316
O          O       0.58913   0.02793   0.59503  -0.53623

