data_crystal

_audit_creation_method 'AiiDA-DDEC plugin'

_cell_length_a         7.73306
_cell_length_b        21.35110
_cell_length_c        21.33918

_cell_angle_alpha     119.99780
_cell_angle_beta     89.99508
_cell_angle_gamma     89.98926

_symmetry_space_group_name_Hall 'P 1'
_symmetry_space_group_name_H-M  'P 1'

loop_
_symmetry_equiv_pos_as_xyz
 'x,y,z'

loop_
_atom_site_label
_atom_site_type_symbol
_atom_site_fract_x
_atom_site_fract_y
_atom_site_fract_z
_atom_site_charge
Zn         Zn      0.85339   0.36566   0.73149   0.93116
Zn         Zn      0.52004   0.96793   0.03190   0.92848
Zn         Zn      0.52019   0.36594   0.63411   0.93096
Zn         Zn      0.18669   0.06421   0.03211   0.92811
Zn         Zn      0.18680   0.26828   0.63404   0.93052
Zn         Zn      0.85327   0.96781   0.93570   0.92836
H          H       0.06110   0.60003   0.92112   0.11970
H          H       0.50670   0.30137   0.80824   0.11973
H          H       0.17319   0.82711   0.96901   0.12046
H          H       0.98487   0.26084   0.08167   0.11978
H          H       0.53094   0.14177   0.96884   0.11964
H          H       0.05429   0.41610   0.92731   0.12052
H          H       0.71822   0.82140   0.08176   0.12054
H          H       0.19839   0.50620   0.80845   0.11939
H          H       0.30828   0.73271   0.98783   0.11955
H          H       0.64233   0.32031   0.92144   0.11952
H          H       0.18798   0.43664   0.04028   0.11024
H          H       0.39427   0.25471   0.98815   0.11958
H          H       0.65044   0.51220   0.92852   0.11928
H          H       0.51479   0.60412   0.04103   0.11072
H          H       0.85093   0.37340   0.10185   0.11063
H          H       0.85136   0.72871   0.10210   0.11028
H          H       0.72763   0.32121   0.39996   0.11978
H          H       0.17361   0.50716   0.69864   0.11944
H          H       0.83994   0.14192   0.17290   0.11993
H          H       0.65169   0.82064   0.73844   0.11962
H          H       0.19762   0.82672   0.85767   0.11958
H          H       0.72098   0.51133   0.58392   0.12056
H          H       0.38497   0.26029   0.17855   0.12066
H          H       0.86502   0.30226   0.49375   0.11928
H          H       0.97499   0.25509   0.26720   0.11962
H          H       0.30925   0.60107   0.67928   0.11939
H          H       0.85468   0.60346   0.56305   0.11074
H          H       0.06150   0.73301   0.74461   0.11967
H          H       0.31710   0.41623   0.48770   0.11940
H          H       0.18146   0.43673   0.39569   0.11112
H          H       0.51765   0.72827   0.62577   0.11074
H          H       0.51804   0.37331   0.27114   0.11026
H          H       0.39450   0.07884   0.67887   0.11972
H          H       0.84030   0.19156   0.49292   0.11959
H          H       0.50638   0.03099   0.85819   0.11993
H          H       0.31820   0.91829   0.17919   0.11994
H          H       0.86415   0.03115   0.17290   0.11985
H          H       0.38771   0.07276   0.48884   0.12037
H          H       0.05166   0.91830   0.73972   0.12039
H          H       0.53175   0.19149   0.69776   0.11949
H          H       0.64158   0.01221   0.74495   0.11946
H          H       0.97574   0.07836   0.39878   0.11930
H          H       0.52127   0.95978   0.39650   0.11046
H          H       0.72744   0.01173   0.26654   0.11953
H          H       0.98393   0.07151   0.58373   0.11956
H          H       0.84834   0.95904   0.56314   0.11050
H          H       0.18413   0.89804   0.27155   0.11026
H          H       0.18483   0.89794   0.62663   0.11042
C          C       0.18558   0.34452   0.79262   0.60103
C          C       0.85470   0.12608   0.01095   0.60117
C          C       0.52139   0.44838   0.79304   0.59962
C          C       0.85151   0.88533   0.01127   0.59901
C          C       0.43513   0.50396   0.86083  -0.04686
C          C       0.76851   0.19371   0.02293  -0.04834
C          C       0.27046   0.35655   0.86041  -0.04879
C          C       0.93572   0.82943   0.02319  -0.04870
C          C       0.19033   0.58119   0.92328  -0.13146
C          C       0.43710   0.33006   0.85922  -0.07596
C          C       0.10285   0.80444   0.99716  -0.07655
C          C       0.85585   0.25975   0.06097  -0.07436
C          C       0.60087   0.19265   0.99724  -0.07614
C          C       0.18280   0.39504   0.92642  -0.07467
C          C       0.84709   0.80146   0.06103  -0.07415
C          C       0.26786   0.52875   0.85949  -0.07699
C          C       0.61206   0.32287   0.04617   0.08790
C          C       0.17884   0.75174   0.00838  -0.13146
C          C       0.51346   0.34138   0.92313  -0.13122
C          C       0.08964   0.72301   0.04574   0.08790
C          C       0.25946   0.40638   0.99027  -0.14604
C          C       0.51869   0.39210   0.05857  -0.26738
C          C       0.52371   0.25654   0.00883  -0.13153
C          C       0.18340   0.66696   0.05893  -0.26828
C          C       0.52159   0.53184   0.92715  -0.07406
C          C       0.44372   0.58418   0.99089  -0.14687
C          C       0.77876   0.32354   0.07232  -0.14678
C          C       0.64561   0.45655   0.08027   0.68837
C          C       0.92336   0.74882   0.07226  -0.14652
C          C       0.39086   0.41446   0.12319   0.68706
C          C       0.27767   0.61007   0.98986   0.08799
C          C       0.42522   0.37936   0.98941   0.08677
C          C       0.30986   0.71045   0.12337   0.68666
C          C       0.05663   0.62462   0.08122   0.68787
C          C       0.85237   0.44823   0.65550   0.60067
C          C       0.52155   0.88456   0.87351   0.60011
C          C       0.18794   0.34466   0.55156   0.59976
C          C       0.51823   0.12595   0.11469   0.59885
C          C       0.10169   0.35686   0.49598  -0.04693
C          C       0.43553   0.82890   0.80575  -0.04830
C          C       0.93724   0.50400   0.64345  -0.04859
C          C       0.60244   0.19373   0.17059  -0.04908
C          C       0.85688   0.34214   0.41879  -0.13158
C          C       0.10394   0.52932   0.66984  -0.07569
C          C       0.76956   0.19271   0.19555  -0.07579
C          C       0.52281   0.80097   0.73961  -0.07443
C          C       0.26786   0.80426   0.80680  -0.07549
C          C       0.84958   0.53145   0.60491  -0.07478
C          C       0.51383   0.25952   0.19850  -0.07425
C          C       0.93442   0.33076   0.47121  -0.07698
C          C       0.27918   0.72305   0.67648   0.08782
C          C       0.84555   0.25662   0.24819  -0.13220
C          C       0.18029   0.58177   0.65831  -0.13135
C          C       0.75636   0.32271   0.27690   0.08846
C          C       0.92626   0.58384   0.59339  -0.14674
C          C       0.18571   0.66637   0.60729  -0.26865
C          C       0.19086   0.75195   0.74285  -0.13224
C          C       0.85004   0.39195   0.33297  -0.26920
C          C       0.18822   0.39525   0.46808  -0.07413
C          C       0.11038   0.40663   0.41572  -0.14743
C          C       0.44572   0.74856   0.67575  -0.14632
C          C       0.31227   0.62317   0.54256   0.68938
C          C       0.59010   0.32340   0.25108  -0.14579
C          C       0.05768   0.70873   0.58531   0.68873
C          C       0.94428   0.37979   0.38988   0.08863
C          C       0.09219   0.60997   0.62020   0.08780
C          C       0.97652   0.41289   0.28949   0.68574
C          C       0.72330   0.45659   0.37536   0.68771
C          C       0.51904   0.20735   0.55183   0.60078
C          C       0.18812   0.98907   0.11514   0.60049
C          C       0.85467   0.20691   0.65531   0.59934
C          C       0.18501   0.98869   0.87408   0.59981
C          C       0.76847   0.13915   0.64311  -0.04642
C          C       0.10186   0.97705   0.17078  -0.04857
C          C       0.60393   0.13956   0.49608  -0.04877
C          C       0.26916   0.97681   0.80627  -0.04905
C          C       0.52373   0.07670   0.65788  -0.13149
C          C       0.77057   0.14067   0.47074  -0.07593
C          C       0.43619   0.00284   0.80734  -0.07569
C          C       0.18916   0.93898   0.19878  -0.07413
C          C       0.93413   0.00272   0.19537  -0.07602
C          C       0.51622   0.07362   0.46865  -0.07435
C          C       0.18052   0.93898   0.74046  -0.07374
C          C       0.60120   0.14047   0.66924  -0.07712
C          C       0.94532   0.95377   0.27669   0.08830
C          C       0.51221   0.99165   0.74342  -0.13142
C          C       0.84683   0.07674   0.41818  -0.13045
C          C       0.42307   0.95429   0.67731   0.08800
C          C       0.59277   0.00974   0.41615  -0.14669
C          C       0.85196   0.94138   0.33354  -0.26790
C          C       0.85694   0.99111   0.24769  -0.13166
C          C       0.51685   0.94111   0.60805  -0.26790
C          C       0.85501   0.07286   0.60470  -0.07485
C          C       0.77719   0.00914   0.59330  -0.14669
C          C       0.11202   0.92760   0.25123  -0.14676
C          C       0.97894   0.91972   0.37629   0.68885
C          C       0.25682   0.92776   0.67658  -0.14679
C          C       0.72417   0.87680   0.29130   0.68686
C          C       0.61110   0.01014   0.62018   0.08836
C          C       0.75851   0.01054   0.38994   0.08697
C          C       0.64327   0.87665   0.58710   0.68644
C          C       0.39006   0.91883   0.54342   0.68776
O          O       0.70557   0.90915   0.04139  -0.53746
O          O       0.03983   0.37490   0.79925  -0.53841
O          O       0.77411   0.06653   0.97121  -0.55663
O          O       0.66733   0.42480   0.79979  -0.53760
O          O       0.44125   0.42868   0.73338  -0.55638
O          O       0.93335   0.90502   0.97166  -0.55458
O          O       0.26650   0.30473   0.73313  -0.55619
O          O       0.00064   0.13278   0.04124  -0.53756
O          O       0.37232   0.13235   0.09093  -0.53714
O          O       0.70664   0.42451   0.62509  -0.53817
O          O       0.44068   0.90449   0.93309  -0.55574
O          O       0.33387   0.37498   0.57512  -0.53734
O          O       0.10785   0.30472   0.57127  -0.55663
O          O       0.59997   0.06663   0.09493  -0.55451
O          O       0.93321   0.42846   0.69525  -0.55596
O          O       0.66760   0.90817   0.86697  -0.53720
O          O       0.03927   0.95847   0.86772  -0.53778
O          O       0.37328   0.20068   0.57555  -0.53804
O          O       0.10731   0.02876   0.09531  -0.55604
O          O       0.00061   0.20017   0.62498  -0.53730
O          O       0.77448   0.26654   0.69526  -0.55587
O          O       0.26667   0.02837   0.93340  -0.55471
O          O       0.59986   0.26682   0.57154  -0.55645
O          O       0.33416   0.95888   0.09153  -0.53731
F          F       0.98876   0.66655   0.14868  -0.20168
F          F       0.44365   0.73685   0.10172  -0.20124
F          F       0.37759   0.66941   0.14956  -0.19967
F          F       0.25787   0.36568   0.10202  -0.20304
F          F       0.92383   0.59691   0.03242  -0.20249
F          F       0.71774   0.47987   0.14644  -0.20029
F          F       0.32263   0.48182   0.14868  -0.20108
F          F       0.77677   0.43771   0.03139  -0.20232
F          F       0.13383   0.56803   0.08221  -0.20225
F          F       0.56621   0.51440   0.08261  -0.20361
F          F       0.23296   0.76804   0.18042  -0.20320
F          F       0.46732   0.41545   0.18088  -0.20233
F          F       0.65552   0.48217   0.33347  -0.20148
F          F       0.11034   0.36485   0.26309  -0.20110
F          F       0.04425   0.48009   0.33059  -0.19923
F          F       0.92471   0.73632   0.63421  -0.20365
F          F       0.59048   0.43549   0.40307  -0.20241
F          F       0.38471   0.66429   0.51738  -0.20073
F          F       0.98946   0.66687   0.51795  -0.20185
F          F       0.44331   0.59367   0.56214  -0.20320
F          F       0.80051   0.51414   0.43199  -0.20201
F          F       0.23220   0.56756   0.48528  -0.20366
F          F       0.89964   0.41238   0.23191  -0.20260
F          F       0.13415   0.76543   0.58444  -0.20158
F          F       0.32238   0.85140   0.51792  -0.20200
F          F       0.77706   0.89826   0.63514  -0.20110
F          F       0.71104   0.85047   0.51985  -0.19952
F          F       0.59116   0.89800   0.26369  -0.20266
F          F       0.25718   0.96760   0.56450  -0.20246
F          F       0.05108   0.85357   0.33344  -0.20020
F          F       0.65598   0.85126   0.33315  -0.20147
F          F       0.11004   0.96859   0.40632  -0.20250
F          F       0.46720   0.91783   0.48581  -0.20192
F          F       0.89954   0.91739   0.43182  -0.20377
F          F       0.56632   0.81964   0.58765  -0.20369
F          F       0.80065   0.81914   0.23458  -0.20223

