data_crystal

_audit_creation_method 'AiiDA-DDEC plugin'

_cell_length_a        15.64121
_cell_length_b        15.67215
_cell_length_c        19.00346

_cell_angle_alpha     65.07406
_cell_angle_beta     65.09402
_cell_angle_gamma     59.04536

_symmetry_space_group_name_Hall 'P 1'
_symmetry_space_group_name_H-M  'P 1'

loop_
_symmetry_equiv_pos_as_xyz
 'x,y,z'

loop_
_atom_site_label
_atom_site_type_symbol
_atom_site_fract_x
_atom_site_fract_y
_atom_site_fract_z
_atom_site_charge
Lu         Lu      0.56920  -0.00195   0.52497   1.74016
Lu         Lu      0.99039   0.91157   0.52596   1.73852
Lu         Lu      0.90600   0.57672   0.52440   1.73908
Lu         Lu      0.41183   0.49501   0.02483   1.73907
Lu         Lu      0.07536   0.40446   0.02263   1.74143
Lu         Lu      0.49972   0.06519   0.02489   1.74564
H          H       0.26090   0.26438   0.86424   0.08505
H          H       0.29131   0.20466   0.66087   0.10111
H          H       0.51473   0.98973   0.79904   0.13752
H          H       0.26458   0.61279   0.86173   0.08746
H          H       0.19809   0.84850   0.65794   0.10136
H          H       0.99273   0.69435   0.79834   0.13748
H          H       0.61696   0.25937   0.85926   0.08707
H          H       0.84870   0.29779   0.65357   0.10214
H          H       0.69622   0.51240   0.79850   0.13750
H          H       0.11252   0.76600   0.36211   0.08709
H          H       0.34840   0.70076   0.15810   0.10096
H          H       0.19512   0.49462   0.29849   0.13731
H          H       0.75729   0.11775   0.35932   0.08817
H          H       0.79809   0.34814   0.15355   0.10105
H          H       0.01272   0.19367   0.29920   0.13879
H          H       0.76524   0.75894   0.36497   0.08435
H          H       0.70372   0.79094   0.16175   0.09899
H          H       0.48971   0.01295   0.30089   0.13765
W          W       0.56373   0.25297   0.48568   2.37230
W          W       0.73679   0.34706   0.47557   1.91410
W          W       0.53070   0.34587   0.65189   1.53606
W          W       0.49327   0.45482   0.34581   1.89410
W          W       0.25248   0.70215   0.48466   2.37569
W          W       0.35037   0.44164   0.47581   1.91693
W          W       0.34673   0.47152   0.65187   1.53774
W          W       0.45435   0.70877   0.34434   1.89160
W          W       0.70144   0.55860   0.48443   2.37998
W          W       0.43972   0.73383   0.47414   1.93283
W          W       0.47074   0.52887   0.65120   1.53720
W          W       0.70981   0.48987   0.34552   1.89301
W          W       0.19926   0.75281   0.98375   2.37177
W          W       0.93753   0.85192   0.97659   1.91760
W          W       0.97164   0.84674   0.15174   1.53808
W          W       0.20866   0.95418   0.84512   1.89265
W          W       0.06186   0.19754   0.98357   2.37906
W          W       0.23560   0.93563   0.97542   1.92301
W          W       0.02902   0.97033   0.15142   1.53546
W          W       0.98905   0.20948   0.84571   1.89310
W          W       0.75213   0.06658   0.98509   2.36854
W          W       0.84754   0.23750   0.97618   1.90821
W          W       0.84580   0.03033   0.15174   1.53698
W          W       0.95414   0.99281   0.84605   1.89464
C          C       0.40945   0.08959   0.72274  -0.09549
C          C       0.39175   0.12379   0.84102  -0.10829
C          C       0.46223   0.03008   0.66263   0.55568
C          C       0.42508   0.09784   0.91214   0.56808
C          C       0.30381   0.21407   0.82421   0.16271
C          C       0.31977   0.18085   0.71245   0.12663
C          C       0.44636   0.06029   0.78853  -0.00016
C          C       0.08745   0.78016   0.72119  -0.09562
C          C       0.12598   0.64327   0.83914  -0.10562
C          C       0.02658   0.84733   0.66178   0.55690
C          C       0.10343   0.56247   0.91025   0.56617
C          C       0.21378   0.66008   0.82185   0.16592
C          C       0.17664   0.79092   0.71005   0.12308
C          C       0.06143   0.70462   0.78725  -0.00100
C          C       0.78110   0.41142   0.71913  -0.10156
C          C       0.64565   0.39022   0.83768  -0.10654
C          C       0.84653   0.46590   0.66031   0.55348
C          C       0.56679   0.42087   0.91025   0.56631
C          C       0.66295   0.30359   0.81929   0.16836
C          C       0.79212   0.32347   0.70667   0.12392
C          C       0.70625   0.44563   0.78620   0.00355
C          C       0.28029   0.58996   0.22105  -0.09655
C          C       0.14365   0.62764   0.33937  -0.10762
C          C       0.34737   0.52973   0.16126   0.55645
C          C       0.06319   0.60493   0.41081   0.56641
C          C       0.16006   0.71553   0.32209   0.16822
C          C       0.29081   0.67911   0.21012   0.12459
C          C       0.20506   0.56345   0.28732   0.00142
C          C       0.91177   0.27950   0.21943  -0.10095
C          C       0.88895   0.14522   0.33811  -0.10811
C          C       0.96689   0.34415   0.15999   0.55583
C          C       0.91844   0.06663   0.41099   0.56717
C          C       0.80209   0.16309   0.31944   0.16657
C          C       0.82329   0.29145   0.20681   0.12465
C          C       0.94545   0.20474   0.28668   0.00149
C          C       0.58877   0.90825   0.22415  -0.09692
C          C       0.62479   0.89040   0.34176  -0.11088
C          C       0.52897   0.96084   0.16407   0.55910
C          C       0.60027   0.92387   0.41238   0.56863
C          C       0.71477   0.80230   0.32492   0.16431
C          C       0.68019   0.81886   0.21352   0.12786
C          C       0.56037   0.94488   0.28985   0.00084
N          N       0.26758   0.24254   0.76166  -0.23025
N          N       0.23897   0.73261   0.75907  -0.23205
N          N       0.73494   0.26986   0.75550  -0.23373
N          N       0.23239   0.74112   0.25926  -0.23445
N          N       0.76889   0.23509   0.25545  -0.23362
N          N       0.74239   0.76644   0.26246  -0.23090
O          O       0.68611   0.27227   0.45738  -0.86719
O          O       0.61162   0.11768   0.49247  -0.89835
O          O       0.41818   0.29449   0.50019  -0.85095
O          O       0.62773   0.48466   0.45713  -0.75224
O          O       0.53617   0.26046   0.58576  -0.82137
O          O       0.50447   0.01390   0.92882  -0.58108
O          O       0.41630   0.05237   0.60999  -0.58828
O          O       0.82970   0.36342   0.36478  -0.83337
O          O       0.67578   0.30317   0.58784  -0.79037
O          O       0.45411   0.59247   0.31374  -0.79246
O          O       0.40036   0.33663   0.72243  -0.74042
O          O       0.37661   0.15956   0.95885  -0.60545
O          O       0.55648   0.96160   0.65602  -0.58023
O          O       0.57003   0.30803   0.37031  -0.83852
O          O       0.27344   0.58763   0.45719  -0.86626
O          O       0.11664   0.78362   0.49127  -0.89365
O          O       0.29200   0.79168   0.49854  -0.84880
O          O       0.48754   0.42980   0.45724  -0.75111
O          O       0.26042   0.62045   0.58497  -0.82300
O          O       0.01885   0.55217   0.92956  -0.57924
O          O       0.04609   0.92514   0.60827  -0.58797
O          O       0.36772   0.44408   0.36486  -0.83568
O          O       0.30616   0.43370   0.58798  -0.79009
O          O       0.59261   0.64045   0.31367  -0.79050
O          O       0.33589   0.54102   0.72167  -0.73927
O          O       0.16853   0.49877   0.95423  -0.60333
O          O       0.95927   0.82692   0.65684  -0.58324
O          O       0.30755   0.75619   0.36903  -0.83747
O          O       0.58495   0.68225   0.45607  -0.86540
O          O       0.78122   0.60656   0.49015  -0.89684
O          O       0.79185   0.41346   0.49953  -0.84561
O          O       0.43035   0.62654   0.45615  -0.74988
O          O       0.61906   0.53279   0.58465  -0.82413
O          O       0.55845   0.49444   0.93069  -0.58429
O          O       0.92611   0.42225   0.60699  -0.58516
O          O       0.44093   0.82714   0.36353  -0.83845
O          O       0.43109   0.67328   0.58630  -0.79106
O          O       0.64338   0.45189   0.31427  -0.79104
O          O       0.54102   0.39830   0.72179  -0.73676
O          O       0.50339   0.37633   0.95458  -0.59833
O          O       0.82264   0.56026   0.65524  -0.58276
O          O       0.75563   0.56488   0.36925  -0.83559
O          O       0.08585   0.77357   0.95692  -0.86702
O          O       0.28218   0.61747   0.98995  -0.89283
O          O       0.29193   0.79066  -0.00115  -0.84606
O          O       0.92817   0.98800   0.95759  -0.75388
O          O       0.12029   0.76047   0.08471  -0.82249
O          O       0.05243   0.52072   0.43033  -0.57689
O          O       0.42479   0.55001   0.10749  -0.58872
O          O       0.94341   0.86788   0.86466  -0.83792
O          O       0.93365   0.80607   0.08794  -0.79063
O          O       0.14015   0.09203   0.81401  -0.78967
O          O       0.04119   0.83548   0.22176  -0.74062
O          O       0.00025   0.66974   0.45509  -0.60627
O          O       0.32745   0.46225   0.15626  -0.58052
O          O       0.25589   0.80784   0.86877  -0.83806
O          O       0.18364   0.08289   0.95610  -0.86884
O          O       0.10873   0.27813   0.98936  -0.89795
O          O       0.91400   0.29089  -0.00060  -0.84394
O          O       0.12653   0.92897   0.95682  -0.75273
O          O       0.03294   0.11800   0.08445  -0.82258
O          O       0.99090   0.05851   0.43281  -0.58193
O          O       0.92218   0.42416   0.10731  -0.58810
O          O       0.32757   0.94058   0.86371  -0.83951
O          O       0.17416   0.93077   0.08695  -0.79101
O          O       0.95149   0.14286   0.81441  -0.79156
O          O       0.89827   0.04045   0.22191  -0.73831
O          O       0.87387   0.00309   0.45427  -0.60164
O          O       0.06193   0.31946   0.15365  -0.57916
O          O       0.06521   0.25469   0.86872  -0.83865
O          O       0.77050   0.18743   0.95742  -0.86844
O          O       0.61683   0.11147   0.99257  -0.89860
O          O       0.79253   0.91853   0.00011  -0.84738
O          O       0.98474   0.12738   0.95725  -0.75420
O          O       0.76079   0.03543   0.08548  -0.82122
O          O       0.51614   0.00269   0.42966  -0.57975
O          O       0.55073   0.91417   0.11207  -0.59481
O          O       0.86273   0.32924   0.86462  -0.83564
O          O       0.80231   0.17526   0.08783  -0.79034
O          O       0.09191   0.95366   0.81451  -0.78974
O          O       0.83624   0.90043   0.22207  -0.74036
O          O       0.66335   0.87602   0.45809  -0.60771
O          O       0.46147   0.05522   0.15647  -0.57800
O          O       0.80718   0.07016   0.87028  -0.84146
O          O       0.47742   0.47675   0.56777  -0.69583
O          O       0.97699   0.97732   0.06775  -0.69344

