data_crystal

_audit_creation_method 'AiiDA-DDEC plugin'

_cell_length_a        10.61157
_cell_length_b        14.52590
_cell_length_c        18.19814

_cell_angle_alpha     75.34965
_cell_angle_beta     72.97551
_cell_angle_gamma     68.43803

_symmetry_space_group_name_Hall 'P 1'
_symmetry_space_group_name_H-M  'P 1'

loop_
_symmetry_equiv_pos_as_xyz
 'x,y,z'

loop_
_atom_site_label
_atom_site_type_symbol
_atom_site_fract_x
_atom_site_fract_y
_atom_site_fract_z
_atom_site_charge
Cd         Cd      0.02926   0.89944   0.45275   0.98650
Cd         Cd      0.00567   0.71575   0.37404   0.88772
Cd         Cd      0.38146   0.59991   0.04858   0.98849
Cd         Cd      0.09246   0.78504   0.12755   0.88575
Cd         Cd      0.97073   0.10056   0.54725   0.98649
Cd         Cd      0.99433   0.28426   0.62596   0.88777
Cd         Cd      0.61853   0.40009   0.95142   0.98844
Cd         Cd      0.90754   0.21496   0.87245   0.88567
H          H       0.79181   0.58032   0.85336   0.11170
H          H       0.81857   0.63335   0.06867   0.13480
H          H       0.15380   0.63926   0.86738   0.12358
H          H       0.11564   0.73079   0.74102   0.10877
H          H       0.14303   0.01981   0.06650   0.13724
H          H       0.16027   0.74980   0.59752   0.11124
H          H       0.99086   0.51453   0.62079   0.10411
H          H       0.95184   0.49127   0.76523   0.10278
H          H       0.14090   0.08744   0.32691   0.13269
H          H       0.21394   0.19458   0.20186   0.10280
H          H       0.21280   0.16263   0.07569   0.11256
H          H       0.22355   0.91979   0.64838   0.11277
H          H       0.52132   0.86652   0.43313   0.13441
H          H       0.65802   0.86152   0.63497   0.12339
H          H       0.58731   0.76933   0.75963   0.10978
H          H       0.22818   0.48152   0.43427   0.13803
H          H       0.50915   0.74880   0.90327   0.11236
H          H       0.12660   0.98494   0.88252   0.10582
H          H       0.20663   0.00970   0.73791   0.10407
H          H       0.55210   0.41110   0.17349   0.13397
H          H       0.60916   0.30520   0.29857   0.10290
H          H       0.45080   0.33851   0.42496   0.11318
H          H       0.20818   0.41968   0.14664   0.11171
H          H       0.18143   0.36665   0.93133   0.13476
H          H       0.84620   0.36074   0.13262   0.12377
H          H       0.88435   0.26921   0.25898   0.10877
H          H       0.85697   0.98019   0.93350   0.13726
H          H       0.83973   0.25020   0.40248   0.11139
H          H       0.00913   0.48547   0.37921   0.10409
H          H       0.04815   0.50874   0.23478   0.10267
H          H       0.85909   0.91257   0.67309   0.13267
H          H       0.78605   0.80542   0.79815   0.10277
H          H       0.78719   0.83737   0.92431   0.11262
H          H       0.77644   0.08021   0.35162   0.11264
H          H       0.47867   0.13348   0.56687   0.13453
H          H       0.34197   0.13849   0.36503   0.12340
H          H       0.41268   0.23068   0.24037   0.10999
H          H       0.77181   0.51848   0.56574   0.13779
H          H       0.49084   0.25120   0.09673   0.11242
H          H       0.87339   0.01507   0.11748   0.10565
H          H       0.79337   0.99031   0.26209   0.10408
H          H       0.44789   0.58890   0.82651   0.13418
H          H       0.39083   0.69480   0.70143   0.10293
H          H       0.54920   0.66150   0.57504   0.11316
C          C       0.10328   0.99277   0.26535   0.13131
C          C       0.85192   0.59442   0.88602  -0.13463
C          C       0.02833   0.61080   0.76366   0.07431
C          C       0.79483   0.60127   0.96479  -0.03184
C          C       0.07696   0.65589   0.51583   0.56794
C          C       0.86474   0.62560   0.00791  -0.10010
C          C       0.98045   0.60960   0.84878   0.06262
C          C       0.65681   0.58724   0.00136   0.56422
C          C       0.99403   0.63899   0.97219  -0.03233
C          C       0.05214   0.62984   0.89336  -0.12097
C          C       0.07264   0.66295   0.01734   0.58948
C          C       0.10631   0.97201   0.19265   0.12655
C          C       0.09281   0.68063   0.71508  -0.13662
C          C       0.14454   0.03354   0.12223  -0.15260
C          C       0.11679   0.69211   0.63422  -0.07970
C          C       0.07643   0.63394   0.60015  -0.04227
C          C       0.02015   0.55972   0.64816  -0.09250
C          C      -0.00280   0.54803   0.72862  -0.13595
C          C       0.14212   0.07315   0.27081  -0.14712
C          C       0.18254   0.13157   0.20115  -0.08094
C          C       0.18246   0.11269   0.12822  -0.07097
C          C       0.35852   0.50645   0.23537   0.13112
C          C       0.33068   0.90554   0.61576  -0.13566
C          C       0.40137   0.88932   0.73826   0.07667
C          C       0.36036   0.89805   0.53694  -0.03277
C          C       0.24855   0.84277   0.98627   0.56871
C          C       0.49828   0.87448   0.49391  -0.09758
C          C       0.43677   0.89069   0.65315   0.06255
C          C       0.24549   0.91117   0.49998   0.56056
C          C       0.60469   0.86222   0.52970  -0.03491
C          C       0.57349   0.87089   0.60868  -0.11981
C          C       0.75330   0.83960   0.48516   0.59043
C          C       0.26867   0.52804   0.30809   0.12832
C          C       0.48813   0.81907   0.78621  -0.13725
C          C       0.29887   0.46716   0.37851  -0.15343
C          C       0.44390   0.80697   0.86718  -0.08523
C          C       0.31123   0.86502   0.90197  -0.03990
C          C       0.22828   0.93991   0.85446  -0.09186
C          C       0.27276   0.95224   0.77393  -0.14007
C          C       0.48351   0.42592   0.22973  -0.15052
C          C       0.51366   0.36821   0.29939  -0.07854
C          C       0.42231   0.38792   0.37242  -0.07133
C          C       0.89671   0.00723   0.73466   0.13135
C          C       0.14808   0.40559   0.11398  -0.13465
C          C       0.97166   0.38920   0.23634   0.07442
C          C       0.20517   0.39874   0.03521  -0.03185
C          C       0.92304   0.34411   0.48417   0.56778
C          C       0.13525   0.37440   0.99210  -0.10031
C          C       0.01955   0.39040   0.15122   0.06256
C          C       0.34318   0.41276  -0.00136   0.56443
C          C       0.00596   0.36101   0.02781  -0.03238
C          C       0.94785   0.37016   0.10664  -0.12093
C          C       0.92736   0.33705   0.98266   0.58948
C          C       0.89369   0.02799   0.80735   0.12653
C          C       0.90718   0.31937   0.28493  -0.13673
C          C       0.85546   0.96646   0.87777  -0.15254
C          C       0.88320   0.30789   0.36578  -0.07970
C          C       0.92356   0.36606   0.39985  -0.04212
C          C       0.97985   0.44028   0.35185  -0.09251
C          C       0.00280   0.45197   0.27138  -0.13594
C          C       0.85788   0.92685   0.72919  -0.14724
C          C       0.81746   0.86843   0.79885  -0.08089
C          C       0.81754   0.88731   0.87178  -0.07086
C          C       0.64148   0.49355   0.76464   0.13139
C          C       0.66931   0.09447   0.38425  -0.13573
C          C       0.59862   0.11068   0.26175   0.07671
C          C       0.63963   0.10196   0.46307  -0.03281
C          C       0.75144   0.15723   0.01374   0.56858
C          C       0.50172   0.12552   0.50609  -0.09759
C          C       0.56322   0.10931   0.34685   0.06251
C          C       0.75450   0.08883   0.50002   0.56042
C          C       0.39530   0.13778   0.47030  -0.03483
C          C       0.42651   0.12911   0.39132  -0.11974
C          C       0.24669   0.16040   0.51484   0.59038
C          C       0.73132   0.47197   0.69191   0.12818
C          C       0.51186   0.18093   0.21379  -0.13731
C          C       0.70112   0.53284   0.62149  -0.15328
C          C       0.55610   0.19303   0.13283  -0.08529
C          C       0.68876   0.13499   0.09804  -0.03964
C          C       0.77171   0.06009   0.14554  -0.09201
C          C       0.72723   0.04777   0.22607  -0.14005
C          C       0.51648   0.57408   0.77028  -0.15060
C          C       0.48633   0.63179   0.70061  -0.07840
C          C       0.57768   0.61208   0.62759  -0.07141
N          N       0.03997   0.85966   0.28641  -0.07404
N          N       0.06623   0.88778   0.20878  -0.23802
N          N       0.06015   0.92149   0.32152  -0.23298
N          N       0.18259   0.63978   0.21435  -0.07189
N          N       0.16007   0.61229   0.29204  -0.24065
N          N       0.29964   0.57739   0.17925  -0.23482
N          N       0.96003   0.14034   0.71360  -0.07415
N          N       0.93377   0.11222   0.79122  -0.23786
N          N       0.93984   0.07851   0.67848  -0.23314
N          N       0.81741   0.36022   0.78565  -0.07192
N          N       0.83992   0.38771   0.70797  -0.24097
N          N       0.70035   0.42261   0.82075  -0.23466
O          O       0.12695   0.72395   0.46963  -0.59824
O          O       0.59307   0.56948   0.95683  -0.62122
O          O       0.20299   0.64300   0.98989  -0.57293
O          O       0.60057   0.59693   0.07117  -0.50777
O          O       0.02147   0.60882   0.49080  -0.51868
O          O       0.00269   0.70210   0.07865  -0.55055
O          O       0.31970   0.77496   0.03303  -0.59747
O          O       0.11868   0.93026   0.54402  -0.61834
O          O       0.83548   0.85707   0.51478  -0.56966
O          O       0.26961   0.90003   0.43049  -0.50743
O          O       0.12038   0.88988   0.01081  -0.51897
O          O       0.78586   0.80467   0.42169  -0.55517
O          O       0.87305   0.27605   0.53037  -0.59802
O          O       0.40692   0.43052   0.04318  -0.62117
O          O       0.79700   0.35700   0.01012  -0.57266
O          O       0.39942   0.40308   0.92883  -0.50806
O          O       0.97852   0.39118   0.50920  -0.51865
O          O      -0.00270   0.29791   0.92135  -0.55080
O          O       0.68030   0.22504   0.96697  -0.59740
O          O       0.88131   0.06974   0.45598  -0.61852
O          O       0.16451   0.14293   0.48522  -0.56968
O          O       0.73039   0.09997   0.56952  -0.50711
O          O       0.87962   0.11013   0.98919  -0.51908
O          O       0.21413   0.19533   0.57831  -0.55509

