data_crystal

_audit_creation_method 'AiiDA-DDEC plugin'

_cell_length_a        10.91035
_cell_length_b        10.91148
_cell_length_c        20.36043

_cell_angle_alpha     92.65548
_cell_angle_beta     92.68055
_cell_angle_gamma     126.09284

_symmetry_space_group_name_Hall 'P 1'
_symmetry_space_group_name_H-M  'P 1'

loop_
_symmetry_equiv_pos_as_xyz
 'x,y,z'

loop_
_atom_site_label
_atom_site_type_symbol
_atom_site_fract_x
_atom_site_fract_y
_atom_site_fract_z
_atom_site_charge
Co         Co      0.44059   0.40740   0.53362   0.48349
Co         Co      0.59209   0.55979   0.96619   0.48216
Co         Co      0.56047   0.59292   0.46664   0.48482
Co         Co      0.40796   0.44018   0.03396   0.48278
H          H       0.59637   0.69809   0.14439   0.09803
H          H       0.49726   0.26979   0.11099   0.08907
H          H       0.52626   0.20007   0.48460   0.08395
H          H       0.94038   0.80303   0.31035   0.10589
H          H       0.41872   0.97408   0.40573   0.11704
H          H       0.98963   0.91508   0.40239   0.11829
H          H       0.70774   0.33461   0.19023   0.10982
H          H       0.11890   0.14892   0.47749   0.09206
H          H       0.94979   0.44729   0.21584   0.07932
H          H       0.28281   0.73524   0.36545   0.08574
H          H       0.81450   0.78382   0.22408   0.11647
H          H       0.90789   0.50279   0.58348   0.09242
H          H       0.80446   0.35867   0.44089   0.08510
H          H       0.74517   0.26176   0.51296   0.08080
H          H       0.05699   0.75337   0.53356   0.09210
H          H       0.99584   0.65655   0.45433   0.08211
H          H       0.30177   0.40350   0.35579   0.09844
H          H       0.72816   0.49873   0.39083   0.08925
H          H       0.79831   0.47388   0.01550   0.08412
H          H       0.19503   0.05761   0.19030   0.10615
H          H       0.02471   0.58119   0.09417   0.11713
H          H       0.08586   0.01112   0.09683   0.11799
H          H       0.66269   0.28750   0.31209   0.10985
H          H       0.85117   0.88193   0.02210   0.09201
H          H       0.54844   0.04535   0.28580   0.07962
H          H       0.26366   0.71618   0.13455   0.08542
H          H       0.21577   0.18584   0.27604   0.11663
H          H       0.49673   0.09213   0.91679   0.09213
H          H       0.64236   0.19669   0.05925   0.08583
H          H       0.73771   0.25486   0.98663   0.08087
H          H       0.24646   0.94201   0.96595   0.09253
H          H       0.34131   0.00360   0.04555   0.08185
H          H       0.40564   0.30410   0.85537   0.09843
H          H       0.50249   0.73132   0.88949   0.08903
H          H       0.47480   0.80012   0.51634   0.08354
H          H       0.06124   0.19850   0.68967   0.10658
H          H       0.58283   0.02621   0.59532   0.11700
H          H       0.01235   0.08658   0.59728   0.11836
H          H       0.29143   0.66592   0.81051   0.10993
H          H       0.88301   0.85289   0.52222   0.09241
H          H       0.04944   0.55220   0.78485   0.07918
H          H       0.71848   0.26566   0.63439   0.08499
H          H       0.18730   0.21800   0.77567   0.11553
H          H       0.09414   0.49839   0.41688   0.09222
H          H       0.19779   0.64349   0.55944   0.08572
H          H       0.25586   0.73876   0.48684   0.08088
H          H       0.94424   0.24790   0.46583   0.09218
H          H       0.00480   0.34235   0.54544   0.08172
H          H       0.69934   0.59820   0.64327   0.09894
H          H       0.27208   0.50165   0.60942   0.08920
H          H       0.19977   0.52607   0.98517   0.08389
H          H       0.80440   0.94128   0.81006   0.10613
H          H       0.97356   0.41814   0.90623   0.11713
H          H       0.91614   0.98982   0.90255   0.11854
H          H       0.33767   0.71244   0.68849   0.10959
H          H       0.14997   0.11939   0.97775   0.09237
H          H       0.45229   0.95458   0.71401   0.07946
H          H       0.73606   0.28304   0.86566   0.08519
H          H       0.78559   0.81591   0.72321   0.11646
H          H       0.50324   0.90681   0.08371   0.09281
H          H       0.35741   0.80266   0.94122   0.08486
H          H       0.26193   0.74448   0.01373   0.08099
H          H       0.75311   0.05690   0.03407   0.09223
H          H       0.65767   0.99557   0.95459   0.08205
C          C       0.62663   0.62199   0.15528   0.08195
C          C       0.57171   0.38327   0.13645   0.06842
C          C       0.78835   0.56946   0.21379   0.09370
C          C       0.74799   0.51254   0.52545   0.56311
C          C       0.40823   0.13420   0.46438   0.07600
C          C       0.19279   0.92313   0.39370   0.10273
C          C       0.92305   0.61761   0.25721   0.00257
C          C       0.99109   0.74261   0.30475  -0.13614
C          C       0.34576   0.00583   0.42060  -0.19173
C          C       0.12291   0.79146   0.34468   0.00148
C          C       0.11041   0.97601   0.41728  -0.19318
C          C       0.69163   0.42174   0.18081  -0.19548
C          C       0.18091   0.10582   0.46055   0.06187
C          C       0.99480   0.54372   0.25246   0.00667
C          C       0.18304   0.70716   0.33507   0.02094
C          C       0.74790   0.66802   0.20060  -0.18647
C          C       0.88454   0.50897   0.53103  -0.11416
C          C       0.84200   0.36161   0.49241  -0.16242
C          C       0.02495   0.64854   0.50549  -0.16598
C          C       0.37741   0.37244   0.34534   0.08070
C          C       0.61491   0.42497   0.36510   0.06692
C          C       0.42877   0.20928   0.28726   0.09511
C          C       0.48749   0.25226   0.97496   0.56404
C          C       0.86414   0.59178   0.03589   0.07563
C          C       0.07590   0.80706   0.10636   0.10281
C          C       0.38026   0.07461   0.24372   0.00019
C          C       0.25585   0.00731   0.19583  -0.13667
C          C       0.99267   0.65403   0.07952  -0.19081
C          C       0.20732   0.87605   0.15553   0.00112
C          C       0.02372   0.88991   0.08254  -0.19270
C          C       0.57603   0.30467   0.32088  -0.19607
C          C       0.89359   0.81956   0.03944   0.06224
C          C       0.45326   0.00196   0.24864   0.00529
C          C       0.29118   0.81542   0.16518   0.02045
C          C       0.33110   0.25113   0.29998  -0.18689
C          C       0.49081   0.11549   0.96927  -0.11391
C          C       0.63859   0.15846   0.00772  -0.16310
C          C       0.35104   0.97485   0.99465  -0.16618
C          C       0.37493   0.37988   0.84456   0.08119
C          C       0.42859   0.61799   0.86386   0.06830
C          C       0.21250   0.43181   0.78633   0.09465
C          C       0.25319   0.48791   0.47497   0.56411
C          C       0.59303   0.86618   0.53627   0.07699
C          C       0.80882   0.07779   0.60654   0.10354
C          C       0.07776   0.38337   0.74295  -0.00011
C          C       0.01028   0.25868   0.69530  -0.13606
C          C       0.65558   0.99452   0.58006  -0.19235
C          C       0.87840   0.20960   0.65542   0.00194
C          C       0.89136   0.02530   0.58274  -0.19287
C          C       0.30845   0.57925   0.81959  -0.19566
C          C       0.82075   0.89547   0.53945   0.06078
C          C       0.00541   0.45661   0.74788   0.00724
C          C       0.81790   0.29356   0.66501   0.02094
C          C       0.25360   0.33366   0.79926  -0.18543
C          C       0.11702   0.49202   0.46936  -0.11583
C          C       0.15954   0.63945   0.50787  -0.16299
C          C       0.97628   0.35211   0.49451  -0.16456
C          C       0.62342   0.62859   0.65425   0.07964
C          C       0.38537   0.57523   0.63510   0.06741
C          C       0.57168   0.79075   0.71287   0.09541
C          C       0.51279   0.74751   0.02527   0.56423
C          C       0.13458   0.40826   0.96467   0.07554
C          C       0.92406   0.19298   0.89375   0.10417
C          C       0.62009   0.92525   0.75641  -0.00027
C          C       0.74422   0.99222   0.80438  -0.13472
C          C       0.00626   0.34576   0.92086  -0.19190
C          C       0.79279   0.12365   0.84454   0.00024
C          C       0.97708   0.11069   0.91731  -0.19352
C          C       0.42426   0.69527   0.67948  -0.19578
C          C       0.10682   0.18126   0.96064   0.06168
C          C       0.54713  -0.00212   0.75133   0.00484
C          C       0.70881   0.18412   0.83487   0.02017
C          C       0.66982   0.74976   0.69971  -0.18588
C          C       0.50901   0.88394   0.03113  -0.11564
C          C       0.36117   0.84094   0.99273  -0.16230
C          C       0.64849   0.02445   0.00559  -0.16516
N          N       0.53997   0.48215   0.12064  -0.23711
N          N       0.33032   0.18880   0.48411  -0.22386
N          N       0.11939   0.58579   0.29066  -0.26196
N          N       0.51690   0.45825   0.38035  -0.23781
N          N       0.80973   0.66987   0.01623  -0.22337
N          N       0.41149   0.87792   0.21011  -0.26124
N          N       0.46109   0.51949   0.87939  -0.23752
N          N       0.67113   0.81208   0.51617  -0.22351
N          N       0.88097   0.41456   0.70957  -0.26153
N          N       0.48356   0.54231   0.61960  -0.23718
N          N       0.18968   0.33065   0.98422  -0.22425
N          N       0.58856   0.12170   0.78993  -0.26117
O          O       0.75305   0.60922   0.49026  -0.51116
O          O       0.63056   0.41380   0.55370  -0.50932
O          O       0.39156   0.24754   0.01049  -0.51053
O          O       0.58523   0.36929   0.94630  -0.51025
O          O       0.24776   0.39122   0.51026  -0.51060
O          O       0.37048   0.58557   0.44640  -0.51033
O          O       0.60850   0.75236   0.98959  -0.51000
O          O       0.41541   0.63051   0.05403  -0.51013

