data_crystal

_audit_creation_method 'AiiDA-DDEC plugin'

_cell_length_a        14.00425
_cell_length_b        16.72573
_cell_length_c        16.72576

_cell_angle_alpha     103.56758
_cell_angle_beta     109.85089
_cell_angle_gamma     109.85092

_symmetry_space_group_name_Hall 'P 1'
_symmetry_space_group_name_H-M  'P 1'

loop_
_symmetry_equiv_pos_as_xyz
 'x,y,z'

loop_
_atom_site_label
_atom_site_type_symbol
_atom_site_fract_x
_atom_site_fract_y
_atom_site_fract_z
_atom_site_charge
Zn         Zn      0.28587   0.33380   0.20266   0.90620
Zn         Zn      0.53921   0.36100   0.27573   0.95109
Zn         Zn      0.21414   0.79734   0.66620   0.90603
Zn         Zn      0.96080   0.72427   0.63901   0.95119
Zn         Zn      0.71414   0.66620   0.79734   0.90608
Zn         Zn      0.46080   0.63901   0.72427   0.95113
Zn         Zn      0.78587   0.20266   0.33380   0.90620
Zn         Zn      0.03921   0.27573   0.36100   0.95115
H          H       0.66042   0.50487   0.12783   0.14863
H          H       0.12601   0.06078   0.04199   0.14160
H          H       0.35360   0.48457   0.55351   0.13942
H          H       0.06058   0.34659   0.16504   0.10747
H          H       0.85680   0.25335   0.04086   0.13999
H          H       0.97580   0.11471   0.87469   0.14856
H          H       0.17557   0.21832   0.00256   0.09967
H          H       0.28262   0.40021   0.02926   0.34036
H          H       0.50595   0.16358   0.13964   0.35790
H          H       0.83959   0.87217   0.49514   0.14851
H          H       0.37399   0.95801   0.93923   0.14174
H          H       0.14640   0.44649   0.51543   0.13945
H          H       0.43943   0.83496   0.65341   0.10749
H          H       0.64321   0.95914   0.74665   0.14023
H          H       0.52421   0.12531   0.88530   0.14857
H          H       0.32444   0.99744   0.78169   0.09957
H          H       0.21739   0.97074   0.59980   0.34038
H          H       0.99406   0.86037   0.83643   0.35785
H          H       0.33959   0.49514   0.87217   0.14853
H          H       0.87400   0.93923   0.95801   0.14176
H          H       0.64640   0.51543   0.44649   0.13948
H          H       0.93943   0.65341   0.83496   0.10748
H          H       0.14321   0.74665   0.95914   0.14015
H          H       0.02420   0.88530   0.12531   0.14855
H          H       0.82444   0.78169   0.99744   0.09949
H          H       0.71739   0.59980   0.97074   0.34038
H          H       0.49405   0.83643   0.86037   0.35789
H          H       0.16042   0.12783   0.50487   0.14862
H          H       0.62601   0.04199   0.06078   0.14145
H          H       0.85361   0.55351   0.48457   0.13939
H          H       0.56058   0.16504   0.34659   0.10751
H          H       0.35680   0.04087   0.25335   0.14002
H          H       0.47580   0.87469   0.11471   0.14862
H          H       0.67557   0.00256   0.21832   0.09974
H          H       0.78262   0.02926   0.40021   0.34035
H          H       0.00595   0.13964   0.16358   0.35791
C          C       0.46124   0.41949   0.12798   0.60622
C          C       0.47954   0.46151   0.06226  -0.16177
C          C       0.59052   0.50291   0.07174  -0.19420
C          C       0.38727   0.45880   0.98949   0.27797
C          C       0.34681   0.17959   0.14879   0.59430
C          C       0.29916   0.09103   0.06960  -0.16018
C          C       0.18001   0.03838   0.01885  -0.19779
C          C       0.37061   0.06152   0.04107   0.27393
C          C       0.25917   0.38101   0.37703   0.61335
C          C       0.38340   0.44142   0.43707  -0.14264
C          C       0.46696   0.44894   0.40540   0.30361
C          C       0.41869   0.49185   0.53053  -0.21450
C          C       0.03801   0.29656   0.09857   0.10588
C          C       0.92552   0.24439   0.03024  -0.18570
C          C       0.90125   0.17598   0.94867   0.19856
C          C       0.99221   0.16716   0.93713  -0.17011
C          C       0.10279   0.22383   0.00832   0.11156
C          C       0.03877   0.87202   0.58051   0.60626
C          C       0.02047   0.93774   0.53849  -0.16156
C          C       0.90949   0.92826   0.49709  -0.19442
C          C       0.11274   0.01051   0.54120   0.27767
C          C       0.15320   0.85121   0.82041   0.59418
C          C       0.20085   0.93040   0.90898  -0.16012
C          C       0.32000   0.98115   0.96162  -0.19778
C          C       0.12940   0.95893   0.93849   0.27402
C          C       0.24084   0.62298   0.61899   0.61314
C          C       0.11661   0.56293   0.55858  -0.14269
C          C       0.03305   0.59460   0.55106   0.30375
C          C       0.08132   0.46948   0.50816  -0.21423
C          C       0.46199   0.90143   0.70344   0.10606
C          C       0.57449   0.96977   0.75562  -0.18590
C          C       0.59876   0.05134   0.82402   0.19865
C          C       0.50780   0.06287   0.83285  -0.17013
C          C       0.39722   0.99169   0.77617   0.11146
C          C       0.53877   0.58051   0.87202   0.60608
C          C       0.52047   0.53849   0.93774  -0.16155
C          C       0.40949   0.49709   0.92826  -0.19454
C          C       0.61274   0.54120   0.01051   0.27782
C          C       0.65320   0.82041   0.85121   0.59429
C          C       0.70085   0.90898   0.93040  -0.16018
C          C       0.82000   0.96162   0.98115  -0.19767
C          C       0.62940   0.93849   0.95893   0.27407
C          C       0.74084   0.61899   0.62298   0.61314
C          C       0.61661   0.55858   0.56293  -0.14274
C          C       0.53305   0.55106   0.59460   0.30375
C          C       0.58132   0.50816   0.46948  -0.21424
C          C       0.96199   0.70344   0.90143   0.10603
C          C       0.07449   0.75562   0.96977  -0.18569
C          C       0.09876   0.82402   0.05134   0.19854
C          C       0.00779   0.83285   0.06287  -0.17006
C          C       0.89722   0.77617   0.99169   0.11170
C          C       0.96124   0.12798   0.41949   0.60639
C          C       0.97954   0.06226   0.46151  -0.16176
C          C       0.09052   0.07174   0.50291  -0.19412
C          C       0.88727   0.98949   0.45880   0.27786
C          C       0.84681   0.14879   0.17959   0.59428
C          C       0.79916   0.06960   0.09103  -0.16019
C          C       0.68001   0.01885   0.03838  -0.19770
C          C       0.87061   0.04107   0.06152   0.27389
C          C       0.75917   0.37703   0.38101   0.61337
C          C       0.88340   0.43707   0.44142  -0.14257
C          C       0.96696   0.40540   0.44894   0.30363
C          C       0.91869   0.53053   0.49185  -0.21452
C          C       0.53802   0.09857   0.29656   0.10575
C          C       0.42552   0.03024   0.24439  -0.18574
C          C       0.40125   0.94866   0.17598   0.19856
C          C       0.49221   0.93713   0.16715  -0.17022
C          C       0.60279   0.00832   0.22383   0.11140
N          N       0.12582   0.28611   0.08884  -0.23297
N          N       0.78976   0.10985   0.87766  -0.10907
N          N       0.37419   0.91116   0.71389  -0.23330
N          N       0.71025   0.12235   0.89015  -0.10931
N          N       0.87419   0.71389   0.91116  -0.23337
N          N       0.21025   0.89015   0.12234  -0.10931
N          N       0.62582   0.08884   0.28611  -0.23280
N          N       0.28976   0.87766   0.10985  -0.10908
O          O       0.35973   0.38617   0.12208  -0.58995
O          O       0.54662   0.41734   0.18547  -0.52944
O          O       0.27781   0.41995   0.97673  -0.45194
O          O       0.27877   0.20579   0.16649  -0.53582
O          O       0.45754   0.22611   0.19478  -0.56600
O          O       0.48652   0.10776   0.08714  -0.43665
O          O       0.44019   0.40076   0.31687  -0.59485
O          O       0.21385   0.34471   0.28878  -0.56430
O          O       0.19749   0.36738   0.41935  -0.52840
O          O       0.14028   0.87792   0.61384  -0.58969
O          O       0.95339   0.81454   0.58266  -0.52987
O          O       0.22220   0.02327   0.58005  -0.45154
O          O       0.22123   0.83352   0.79422  -0.53555
O          O       0.04247   0.80522   0.77390  -0.56624
O          O       0.01348   0.91287   0.89224  -0.43691
O          O       0.05982   0.68314   0.59924  -0.59476
O          O       0.28616   0.71122   0.65530  -0.56398
O          O       0.30252   0.58066   0.63263  -0.52826
O          O       0.64028   0.61384   0.87792  -0.58961
O          O       0.45339   0.58266   0.81454  -0.52980
O          O       0.72220   0.58005   0.02327  -0.45155
O          O       0.72124   0.79422   0.83352  -0.53553
O          O       0.54247   0.77390   0.80522  -0.56637
O          O       0.51348   0.89224   0.91287  -0.43700
O          O       0.55982   0.59924   0.68314  -0.59481
O          O       0.78616   0.65530   0.71122  -0.56396
O          O       0.80252   0.63263   0.58066  -0.52825
O          O       0.85973   0.12208   0.38617  -0.59004
O          O       0.04661   0.18547   0.41734  -0.52949
O          O       0.77781   0.97673   0.41995  -0.45193
O          O       0.77877   0.16649   0.20579  -0.53586
O          O       0.95754   0.19478   0.22611  -0.56597
O          O       0.98653   0.08714   0.10776  -0.43658
O          O       0.94019   0.31687   0.40076  -0.59481
O          O       0.71385   0.28878   0.34471  -0.56434
O          O       0.69749   0.41935   0.36738  -0.52844

