data_crystal

_audit_creation_method 'AiiDA-DDEC plugin'

_cell_length_a        15.73888
_cell_length_b        15.73889
_cell_length_c        16.46359

_cell_angle_alpha     89.99926
_cell_angle_beta     89.99907
_cell_angle_gamma     120.03494

_symmetry_space_group_name_Hall 'P 1'
_symmetry_space_group_name_H-M  'P 1'

loop_
_symmetry_equiv_pos_as_xyz
 'x,y,z'

loop_
_atom_site_label
_atom_site_type_symbol
_atom_site_fract_x
_atom_site_fract_y
_atom_site_fract_z
_atom_site_charge
Zn         Zn      0.73488   0.26511   0.25000   1.06073
Zn         Zn      0.73489   0.46981   0.24999   1.06113
Zn         Zn      0.53019   0.26511   0.25001   1.06110
Zn         Zn      0.26511   0.73488   0.75000   1.06075
Zn         Zn      0.26510   0.53019   0.75001   1.06113
Zn         Zn      0.46981   0.73489   0.74999   1.06106
H          H       0.30605   0.75749   0.53046   0.12023
H          H       0.22508   0.70712   0.39704   0.10398
H          H       0.28478   0.82579   0.28046   0.10441
H          H       0.42514   0.99232   0.29747   0.12038
H          H       0.24249   0.54855   0.53046   0.12011
H          H       0.29283   0.51795   0.39704   0.10402
H          H       0.17418   0.45898   0.28047   0.10450
H          H       0.00769   0.43281   0.29747   0.12047
H          H       0.45145   0.69392   0.53044   0.12016
H          H       0.48205   0.77486   0.39704   0.10414
H          H       0.54102   0.71520   0.28047   0.10462
H          H       0.56717   0.57489   0.29748   0.12068
H          H       0.24250   0.69394   0.96954   0.12017
H          H       0.29288   0.77492   0.10296   0.10389
H          H       0.17420   0.71522   0.21954   0.10430
H          H       0.00768   0.57486   0.20253   0.12036
H          H       0.45144   0.75750   0.96954   0.12026
H          H       0.48205   0.70716   0.10295   0.10409
H          H       0.54102   0.82581   0.21953   0.10436
H          H       0.56718   0.99231   0.20253   0.12032
H          H       0.30607   0.54855   0.96955   0.12017
H          H       0.22513   0.51794   0.10296   0.10420
H          H       0.28479   0.45898   0.21953   0.10427
H          H       0.42511   0.43282   0.20252   0.12059
H          H       0.69394   0.24250   0.46954   0.12020
H          H       0.77492   0.29288   0.60296   0.10379
H          H       0.71521   0.17420   0.71954   0.10422
H          H       0.57485   0.00767   0.70253   0.12038
H          H       0.75751   0.45144   0.46954   0.12029
H          H       0.70716   0.48205   0.60295   0.10412
H          H       0.82581   0.54101   0.71953   0.10434
H          H       0.99231   0.56718   0.70253   0.12027
H          H       0.54855   0.30608   0.46955   0.12017
H          H       0.51794   0.22513   0.60296   0.10415
H          H       0.45898   0.28479   0.71953   0.10420
H          H       0.43282   0.42511   0.70252   0.12054
H          H       0.75750   0.30606   0.03046   0.12026
H          H       0.70712   0.22508   0.89703   0.10406
H          H       0.82579   0.28478   0.78046   0.10444
H          H       0.99232   0.42514   0.79747   0.12037
H          H       0.54856   0.24249   0.03046   0.12011
H          H       0.51795   0.29283   0.89704   0.10400
H          H       0.45898   0.17418   0.78047   0.10454
H          H       0.43281   0.00768   0.79747   0.12057
H          H       0.69392   0.45145   0.03045   0.12007
H          H       0.77486   0.48205   0.89703   0.10404
H          H       0.71520   0.54101   0.78047   0.10433
H          H       0.57488   0.56717   0.79748   0.12069
C          C       0.56789   0.13668   0.36327   0.59366
C          C       0.53370   0.06630   0.43369  -0.05847
C          C       0.45117   0.97146   0.42361   0.04003
C          C       0.41668   0.90372   0.49094   0.03963
C          C       0.33400   0.80832   0.47944  -0.10029
C          C       0.28790   0.78053   0.40473  -0.07275
C          C       0.32176   0.84726   0.33888  -0.07987
C          C       0.40107   0.94083   0.34802  -0.10601
C          C       0.86333   0.43123   0.36327   0.59312
C          C       0.93372   0.46743   0.43368  -0.05841
C          C       0.02854   0.47971   0.42361   0.04004
C          C       0.09627   0.51295   0.49095   0.03960
C          C       0.19165   0.52567   0.47944  -0.10032
C          C       0.21944   0.50736   0.40474  -0.07290
C          C       0.15271   0.47450   0.33889  -0.08007
C          C       0.05917   0.46023   0.34802  -0.10581
C          C       0.56877   0.43212   0.36327   0.59378
C          C       0.53258   0.46631   0.43368  -0.05852
C          C       0.52028   0.54882   0.42361   0.04007
C          C       0.48704   0.58331   0.49095   0.03964
C          C       0.47433   0.66597   0.47944  -0.10021
C          C       0.49264   0.71207   0.40473  -0.07325
C          C       0.52550   0.67821   0.33889  -0.08029
C          C       0.53976   0.59895   0.34802  -0.10613
C          C       0.86332   0.43210   0.13673   0.59370
C          C       0.93370   0.46629   0.06631  -0.05867
C          C       0.02854   0.54882   0.07639   0.04005
C          C       0.09628   0.58332   0.00906   0.03956
C          C       0.19168   0.66600   0.02056  -0.10025
C          C       0.21947   0.71210   0.09527  -0.07285
C          C       0.15273   0.67823   0.16112  -0.08012
C          C       0.05916   0.59893   0.15198  -0.10572
C          C       0.56876   0.13667   0.13673   0.59340
C          C       0.53257   0.06628   0.06631  -0.05857
C          C       0.52028   0.97146   0.07639   0.04008
C          C       0.48704   0.90372   0.00905   0.03944
C          C       0.47433   0.80834   0.02055  -0.10015
C          C       0.49263   0.78055   0.09526  -0.07285
C          C       0.52550   0.84729   0.16111  -0.08003
C          C       0.53976   0.94083   0.15198  -0.10581
C          C       0.56788   0.43123   0.13673   0.59379
C          C       0.53368   0.46742   0.06632  -0.05856
C          C       0.45117   0.47972   0.07639   0.04009
C          C       0.41669   0.51296   0.00905   0.03961
C          C       0.33403   0.52567   0.02056  -0.10022
C          C       0.28793   0.50736   0.09527  -0.07330
C          C       0.32178   0.47450   0.16111  -0.07974
C          C       0.40105   0.46024   0.15197  -0.10607
C          C       0.43210   0.86331   0.63672   0.59367
C          C       0.46629   0.93370   0.56631  -0.05822
C          C       0.54882   0.02854   0.57639   0.03983
C          C       0.58331   0.09627   0.50905   0.03976
C          C       0.66600   0.19167   0.52056  -0.10035
C          C       0.71209   0.21947   0.59526  -0.07276
C          C       0.67823   0.15273   0.66111  -0.08023
C          C       0.59893   0.05916   0.65198  -0.10571
C          C       0.13667   0.56876   0.63673   0.59333
C          C       0.06627   0.53257   0.56631  -0.05844
C          C       0.97146   0.52028   0.57639   0.04013
C          C       0.90372   0.48704   0.50905   0.03946
C          C       0.80834   0.47433   0.52055  -0.10006
C          C       0.78055   0.49263   0.59526  -0.07284
C          C       0.84728   0.52550   0.66111  -0.08000
C          C       0.94082   0.53976   0.65197  -0.10597
C          C       0.43122   0.56788   0.63673   0.59389
C          C       0.46742   0.53368   0.56631  -0.05848
C          C       0.47971   0.45117   0.57639   0.04007
C          C       0.51295   0.41669   0.50905   0.03962
C          C       0.52566   0.33403   0.52055  -0.10017
C          C       0.50736   0.28792   0.59527  -0.07316
C          C       0.47449   0.32178   0.66111  -0.07975
C          C       0.46024   0.40105   0.65197  -0.10606
C          C       0.13668   0.56789   0.86327   0.59359
C          C       0.06630   0.53370   0.93369  -0.05858
C          C       0.97145   0.45117   0.92361   0.04007
C          C       0.90372   0.41668   0.99094   0.03959
C          C       0.80832   0.33399   0.97944  -0.10030
C          C       0.78053   0.28790   0.90473  -0.07270
C          C       0.84726   0.32176   0.83888  -0.07980
C          C       0.94083   0.40107   0.84802  -0.10603
C          C       0.43123   0.86333   0.86327   0.59289
C          C       0.46742   0.93372   0.93368  -0.05851
C          C       0.47971   0.02853   0.92360   0.04001
C          C       0.51295   0.09627   0.99095   0.03951
C          C       0.52567   0.19165   0.97944  -0.10045
C          C       0.50736   0.21944   0.90474  -0.07278
C          C       0.47449   0.15271   0.83889  -0.08008
C          C       0.46023   0.05917   0.84802  -0.10565
C          C       0.43211   0.56877   0.86327   0.59362
C          C       0.46631   0.53258   0.93368  -0.05837
C          C       0.54882   0.52028   0.92361   0.03981
C          C       0.58331   0.48704   0.99094   0.03979
C          C       0.66596   0.47433   0.97944  -0.10045
C          C       0.71207   0.49263   0.90473  -0.07313
C          C       0.67821   0.52550   0.83889  -0.07992
C          C       0.59894   0.53976   0.84802  -0.10595
O          O       0.64228   0.14618   0.32505  -0.53886
O          O       0.51655   0.17731   0.35152  -0.53018
O          O       0.85382   0.49611   0.32507  -0.53860
O          O       0.82266   0.33921   0.35152  -0.53000
O          O       0.50385   0.35768   0.32506  -0.53890
O          O       0.66080   0.48348   0.35153  -0.53062
O          O       0.85381   0.35771   0.17495  -0.53887
O          O       0.82269   0.48344   0.14847  -0.53024
O          O       0.50389   0.14617   0.17493  -0.53856
O          O       0.66079   0.17733   0.14848  -0.53031
O          O       0.64232   0.49614   0.17494  -0.53914
O          O       0.51652   0.33920   0.14847  -0.53040
O          O       0.35771   0.85381   0.67494  -0.53884
O          O       0.48344   0.82268   0.64847  -0.53032
O          O       0.14617   0.50389   0.67493  -0.53853
O          O       0.17733   0.66079   0.64848  -0.53033
O          O       0.49614   0.64232   0.67494  -0.53934
O          O       0.33919   0.51652   0.64847  -0.53034
O          O       0.14618   0.64228   0.82505  -0.53872
O          O       0.17731   0.51655   0.85152  -0.53023
O          O       0.49611   0.85382   0.82506  -0.53863
O          O       0.33920   0.82266   0.85152  -0.52980
O          O       0.35768   0.50385   0.82506  -0.53870
O          O       0.48347   0.66080   0.85153  -0.53068
O          O       0.66667   0.33332   0.25000  -0.99620
O          O       0.33332   0.66667   0.75000  -0.99620

