data_crystal

_audit_creation_method 'AiiDA-DDEC plugin'

_cell_length_a        18.51891
_cell_length_b        18.51891
_cell_length_c        18.51891

_cell_angle_alpha     90.00000
_cell_angle_beta     90.00000
_cell_angle_gamma     90.00000

_symmetry_space_group_name_Hall 'P 1'
_symmetry_space_group_name_H-M  'P 1'

loop_
_symmetry_equiv_pos_as_xyz
 'x,y,z'

loop_
_atom_site_label
_atom_site_type_symbol
_atom_site_fract_x
_atom_site_fract_y
_atom_site_fract_z
_atom_site_charge
Cu         Cu      0.50000   0.13399   0.00000   0.60740
Cu         Cu      0.50000   0.86601   0.00000   0.60736
Cu         Cu      0.00000   0.50000   0.13399   0.60740
Cu         Cu      0.00000   0.50000   0.86601   0.60736
Cu         Cu      0.13399   0.00000   0.50000   0.60743
Cu         Cu      0.86601   0.00000   0.50000   0.60737
Cu         Cu      0.13399   0.50000   0.00000   0.60746
Cu         Cu      0.86601   0.50000   0.00000   0.60736
Cu         Cu      0.50000   0.00000   0.86601   0.60736
Cu         Cu      0.50000   0.00000   0.13399   0.60746
Cu         Cu      0.00000   0.13399   0.50000   0.60743
Cu         Cu      0.00000   0.86601   0.50000   0.60735
H          H       0.26462   0.26462   0.09988   0.13269
H          H       0.73538   0.73538   0.09988   0.13271
H          H       0.73538   0.26462   0.90012   0.13269
H          H       0.26462   0.73538   0.90012   0.13269
H          H       0.09988   0.26462   0.26462   0.13269
H          H       0.09988   0.73538   0.73538   0.13271
H          H       0.90012   0.73538   0.26462   0.13269
H          H       0.90012   0.26462   0.73538   0.13269
H          H       0.26462   0.09988   0.26462   0.13269
H          H       0.73538   0.09988   0.73538   0.13271
H          H       0.26462   0.90012   0.73538   0.13269
H          H       0.73538   0.90012   0.26462   0.13269
H          H       0.26462   0.26462   0.90012   0.13269
H          H       0.73538   0.73538   0.90012   0.13271
H          H       0.26462   0.73538   0.09988   0.13270
H          H       0.73538   0.26462   0.09988   0.13270
H          H       0.26462   0.09988   0.73538   0.13270
H          H       0.73538   0.09988   0.26462   0.13270
H          H       0.73538   0.90012   0.73538   0.13271
H          H       0.26462   0.90012   0.26462   0.13269
H          H       0.09988   0.26462   0.73538   0.13270
H          H       0.09988   0.73538   0.26462   0.13270
H          H       0.90012   0.26462   0.26462   0.13269
H          H       0.90012   0.73538   0.73538   0.13271
C          C       0.24073   0.24073   0.14792  -0.14105
C          C       0.75926   0.75926   0.14792  -0.14100
C          C       0.75926   0.24073   0.85207  -0.14103
C          C       0.24073   0.75926   0.85207  -0.14103
C          C       0.14792   0.24073   0.24073  -0.14105
C          C       0.14792   0.75926   0.75926  -0.14099
C          C       0.85207   0.75926   0.24073  -0.14103
C          C       0.85207   0.24073   0.75926  -0.14103
C          C       0.24073   0.14792   0.24073  -0.14105
C          C       0.75926   0.14792   0.75926  -0.14100
C          C       0.24073   0.85207   0.75926  -0.14103
C          C       0.75926   0.85207   0.24073  -0.14103
C          C       0.24073   0.24073   0.85207  -0.14108
C          C       0.75926   0.75926   0.85207  -0.14098
C          C       0.24073   0.75926   0.14792  -0.14103
C          C       0.75926   0.24073   0.14792  -0.14103
C          C       0.24073   0.14792   0.75926  -0.14103
C          C       0.75926   0.14792   0.24073  -0.14103
C          C       0.75926   0.85207   0.75926  -0.14098
C          C       0.24073   0.85207   0.24073  -0.14108
C          C       0.14792   0.24073   0.75926  -0.14103
C          C       0.14792   0.75926   0.24073  -0.14103
C          C       0.85207   0.24073   0.24073  -0.14108
C          C       0.85207   0.75926   0.75926  -0.14098
C          C       0.27161   0.17894   0.17894   0.03307
C          C       0.33620   0.14678   0.14678   0.23988
C          C       0.72838   0.82106   0.17894   0.03300
C          C       0.66380   0.85322   0.14678   0.23994
C          C       0.72838   0.17894   0.82106   0.03300
C          C       0.66380   0.14678   0.85322   0.23994
C          C       0.27161   0.82106   0.82106   0.03302
C          C       0.33620   0.85322   0.85322   0.23981
C          C       0.17894   0.27161   0.17894   0.03307
C          C       0.14678   0.33620   0.14678   0.23988
C          C       0.17894   0.72838   0.82106   0.03302
C          C       0.14678   0.66380   0.85322   0.23990
C          C       0.82106   0.72838   0.17894   0.03302
C          C       0.85322   0.66380   0.14678   0.23991
C          C       0.82106   0.27161   0.82106   0.03302
C          C       0.85322   0.33620   0.85322   0.23981
C          C       0.17894   0.17894   0.27161   0.03307
C          C       0.14678   0.14678   0.33620   0.23988
C          C       0.82106   0.17894   0.72838   0.03300
C          C       0.85322   0.14678   0.66380   0.23994
C          C       0.17894   0.82106   0.72838   0.03300
C          C       0.14678   0.85322   0.66380   0.23994
C          C       0.82106   0.82106   0.27161   0.03302
C          C       0.85322   0.85322   0.33620   0.23981
C          C       0.17894   0.27161   0.82106   0.03309
C          C       0.14678   0.33620   0.85322   0.23977
C          C       0.82106   0.72838   0.82106   0.03296
C          C       0.85322   0.66380   0.85322   0.23989
C          C       0.17894   0.72838   0.17894   0.03307
C          C       0.14678   0.66380   0.14678   0.23987
C          C       0.82106   0.27161   0.17894   0.03309
C          C       0.85322   0.33620   0.14678   0.23977
C          C       0.27161   0.17894   0.82106   0.03309
C          C       0.33620   0.14678   0.85322   0.23976
C          C       0.72838   0.17894   0.17894   0.03307
C          C       0.66380   0.14678   0.14678   0.23986
C          C       0.72838   0.82106   0.82106   0.03296
C          C       0.66380   0.85322   0.85322   0.23989
C          C       0.27161   0.82106   0.17894   0.03309
C          C       0.33620   0.85322   0.14678   0.23976
C          C       0.17894   0.17894   0.72838   0.03307
C          C       0.14678   0.14678   0.66380   0.23987
C          C       0.17894   0.82106   0.27161   0.03309
C          C       0.14678   0.85322   0.33620   0.23977
C          C       0.82106   0.17894   0.27161   0.03309
C          C       0.85322   0.14678   0.33620   0.23976
C          C       0.82106   0.82106   0.72838   0.03296
C          C       0.85322   0.85322   0.66380   0.23990
N          N       0.36978   0.17300   0.08729  -0.20356
N          N       0.42500   0.12888   0.07739  -0.08051
N          N       0.63022   0.82700   0.08729  -0.20358
N          N       0.57500   0.87112   0.07739  -0.08045
N          N       0.63022   0.17300   0.91271  -0.20361
N          N       0.57500   0.12888   0.92261  -0.08065
N          N       0.36978   0.82700   0.91271  -0.20350
N          N       0.42500   0.87112   0.92261  -0.08062
N          N       0.08729   0.36978   0.17300  -0.20356
N          N       0.07739   0.42500   0.12888  -0.08051
N          N       0.08729   0.63022   0.82700  -0.20357
N          N       0.07739   0.57500   0.87112  -0.08045
N          N       0.91271   0.63022   0.17300  -0.20361
N          N       0.92261   0.57500   0.12888  -0.08065
N          N       0.91271   0.36978   0.82700  -0.20350
N          N       0.92261   0.42500   0.87112  -0.08062
N          N       0.17300   0.08729   0.36978  -0.20356
N          N       0.12888   0.07739   0.42500  -0.08051
N          N       0.82700   0.08729   0.63022  -0.20358
N          N       0.87112   0.07739   0.57500  -0.08045
N          N       0.17300   0.91271   0.63022  -0.20361
N          N       0.12888   0.92261   0.57500  -0.08065
N          N       0.82700   0.91271   0.36978  -0.20353
N          N       0.87112   0.92261   0.42500  -0.08061
N          N       0.17300   0.36978   0.91271  -0.20351
N          N       0.12888   0.42500   0.92261  -0.08076
N          N       0.82700   0.63022   0.91271  -0.20359
N          N       0.87112   0.57500   0.92261  -0.08055
N          N       0.17300   0.63022   0.08729  -0.20356
N          N       0.12888   0.57500   0.07739  -0.08062
N          N       0.82700   0.36978   0.08729  -0.20348
N          N       0.87112   0.42500   0.07739  -0.08045
N          N       0.36978   0.08729   0.82700  -0.20348
N          N       0.42500   0.07739   0.87112  -0.08047
N          N       0.63022   0.08729   0.17300  -0.20356
N          N       0.57500   0.07739   0.12888  -0.08062
N          N       0.63022   0.91271   0.82700  -0.20358
N          N       0.57500   0.92261   0.87112  -0.08055
N          N       0.36978   0.91271   0.17300  -0.20351
N          N       0.42500   0.92261   0.12888  -0.08077
N          N       0.08729   0.17300   0.63022  -0.20360
N          N       0.07739   0.12888   0.57500  -0.08044
N          N       0.08729   0.82700   0.36978  -0.20348
N          N       0.07739   0.87112   0.42500  -0.08047
N          N       0.91271   0.17300   0.36978  -0.20350
N          N       0.92261   0.12888   0.42500  -0.08077
N          N       0.91271   0.82700   0.63022  -0.20359
N          N       0.92261   0.87112   0.57500  -0.08053
N          N       0.63022   0.82700   0.91271  -0.20359
N          N       0.57500   0.87112   0.92261  -0.08055
N          N       0.36978   0.17300   0.91271  -0.20351
N          N       0.42500   0.12888   0.92261  -0.08076
N          N       0.36978   0.82700   0.08729  -0.20348
N          N       0.42500   0.87112   0.07739  -0.08047
N          N       0.63022   0.17300   0.08729  -0.20359
N          N       0.57500   0.12888   0.07739  -0.08044
N          N       0.91271   0.63022   0.82700  -0.20359
N          N       0.92261   0.57500   0.87112  -0.08055
N          N       0.91271   0.36978   0.17300  -0.20352
N          N       0.92261   0.42500   0.12888  -0.08077
N          N       0.08729   0.36978   0.82700  -0.20348
N          N       0.07739   0.42500   0.87112  -0.08047
N          N       0.08729   0.63022   0.17300  -0.20360
N          N       0.07739   0.57500   0.12888  -0.08044
N          N       0.82700   0.91271   0.63022  -0.20356
N          N       0.87112   0.92261   0.57500  -0.08060
N          N       0.17300   0.91271   0.36978  -0.20351
N          N       0.12888   0.92261   0.42500  -0.08077
N          N       0.82700   0.08729   0.36978  -0.20348
N          N       0.87112   0.07739   0.42500  -0.08047
N          N       0.17300   0.08729   0.63022  -0.20357
N          N       0.12888   0.07739   0.57500  -0.08062
N          N       0.82700   0.63022   0.08729  -0.20357
N          N       0.87112   0.57500   0.07739  -0.08045
N          N       0.17300   0.36978   0.08729  -0.20353
N          N       0.12888   0.42500   0.07739  -0.08069
N          N       0.82700   0.36978   0.91271  -0.20353
N          N       0.87112   0.42500   0.92261  -0.08061
N          N       0.17300   0.63022   0.91271  -0.20360
N          N       0.12888   0.57500   0.92261  -0.08066
N          N       0.63022   0.91271   0.17300  -0.20361
N          N       0.57500   0.92261   0.12888  -0.08066
N          N       0.36978   0.91271   0.82700  -0.20353
N          N       0.42500   0.92261   0.87112  -0.08061
N          N       0.36978   0.08729   0.17300  -0.20353
N          N       0.42500   0.07739   0.12888  -0.08069
N          N       0.63022   0.08729   0.82700  -0.20358
N          N       0.57500   0.07739   0.87112  -0.08045
N          N       0.91271   0.82700   0.36978  -0.20350
N          N       0.92261   0.87112   0.42500  -0.08061
N          N       0.91271   0.17300   0.63022  -0.20361
N          N       0.92261   0.12888   0.57500  -0.08066
N          N       0.08729   0.82700   0.63022  -0.20358
N          N       0.07739   0.87112   0.57500  -0.08045
N          N       0.08729   0.17300   0.36978  -0.20353
N          N       0.07739   0.12888   0.42500  -0.08069

