data_crystal

_audit_creation_method 'AiiDA-DDEC plugin'

_cell_length_a         7.85085
_cell_length_b        20.33763
_cell_length_c        22.82367

_cell_angle_alpha     90.03097
_cell_angle_beta     89.77310
_cell_angle_gamma     94.90151

_symmetry_space_group_name_Hall 'P 1'
_symmetry_space_group_name_H-M  'P 1'

loop_
_symmetry_equiv_pos_as_xyz
 'x,y,z'

loop_
_atom_site_label
_atom_site_type_symbol
_atom_site_fract_x
_atom_site_fract_y
_atom_site_fract_z
_atom_site_charge
Cu         Cu      0.27642   0.50565   0.44666   0.87799
Cu         Cu      0.22378   0.99531   0.94658   0.87848
Cu         Cu      0.72357   0.49434   0.55334   0.87801
Cu         Cu      0.77622   0.00468   0.05343   0.87841
H          H       0.45456   0.39579   0.64678   0.11906
H          H       0.37021   0.30683   0.71739   0.09190
H          H       0.90816   0.25707   0.61976   0.11880
H          H      -0.00350   0.34765   0.54841   0.11413
H          H       0.00693   0.01464   0.84443   0.10792
H          H       0.97648   0.10002   0.76678   0.14958
H          H       0.32342   0.23139   0.86798   0.13437
H          H       0.33960   0.14020   0.94022   0.10055
H          H       0.33629   0.65957   0.31484   0.11433
H          H       0.33168   0.72816   0.22614   0.09494
H          H       0.90631   0.60144   0.16050   0.11895
H          H       0.91351   0.53263   0.25251   0.12377
H          H       0.36972   0.88613   0.13769   0.14271
H          H       0.39499   0.97028   0.06203   0.09746
H          H       0.08918   0.85503   0.94717   0.09779
H          H       0.05106   0.76241   0.01969   0.14964
H          H       0.23205   0.26347   0.77740   0.27247
H          H       0.24963   0.78485   0.16839   0.27318
H          H       0.04407   0.10437   0.14695   0.11915
H          H       0.12800   0.19340   0.21762   0.09127
H          H       0.59328   0.24169   0.12003   0.11909
H          H       0.50437   0.15132   0.04862   0.11430
H          H       0.49216   0.48609   0.34336   0.10640
H          H       0.52324   0.40016   0.26614   0.14884
H          H       0.17655   0.26943   0.36896   0.13491
H          H       0.16000   0.36116   0.44060   0.10080
H          H       0.16421   0.84172   0.81486   0.11399
H          H       0.16982   0.77262   0.72659   0.09498
H          H       0.59689   0.89857   0.66002   0.11904
H          H       0.58839   0.96792   0.75166   0.12287
H          H       0.12897   0.61435   0.63835   0.14193
H          H       0.10383   0.53026   0.56249   0.09754
H          H       0.41202   0.64539   0.44748   0.09854
H          H       0.45110   0.73760   0.52029   0.15028
H          H       0.26764   0.23650   0.27834   0.27284
H          H       0.24955   0.71564   0.66912   0.27323
H          H       0.54543   0.60421   0.35323   0.11912
H          H       0.62978   0.69317   0.28261   0.09183
H          H       0.09182   0.74292   0.38025   0.11866
H          H       0.00349   0.65235   0.45159   0.11417
H          H       0.99307   0.98536   0.15558   0.10781
H          H       0.02352   0.89998   0.23322   0.14963
H          H       0.67657   0.76861   0.13202   0.13439
H          H       0.66040   0.85980   0.05979   0.10047
H          H       0.66370   0.34043   0.68517   0.11426
H          H       0.66832   0.27184   0.77387   0.09505
H          H       0.09369   0.39856   0.83950   0.11900
H          H       0.08649   0.46737   0.74750   0.12372
H          H       0.63028   0.11386   0.86232   0.14265
H          H       0.60500   0.02972   0.93798   0.09757
H          H       0.91081   0.14497   0.05283   0.09791
H          H       0.94893   0.23759   0.98031   0.14956
H          H       0.76794   0.73653   0.22260   0.27247
H          H       0.75037   0.21514   0.83162   0.27312
H          H       0.95593   0.89562   0.85305   0.11908
H          H       0.87199   0.80660   0.78239   0.09106
H          H       0.40671   0.75831   0.87998   0.11927
H          H       0.49562   0.84868   0.95139   0.11443
H          H       0.50783   0.51391   0.65665   0.10646
H          H       0.47675   0.59984   0.73387   0.14906
H          H       0.82344   0.73056   0.63104   0.13464
H          H       0.83999   0.63883   0.55941   0.10058
H          H       0.83579   0.15828   0.18514   0.11385
H          H       0.83017   0.22738   0.27342   0.09486
H          H       0.40310   0.10144   0.33998   0.11912
H          H       0.41161   0.03208   0.24834   0.12293
H          H       0.87102   0.38565   0.36165   0.14165
H          H       0.89616   0.46974   0.43752   0.09731
H          H       0.58797   0.35461   0.55253   0.09866
H          H       0.54889   0.26240   0.47971   0.15036
H          H       0.73236   0.76350   0.72166   0.27261
H          H       0.75045   0.28436   0.33088   0.27288
C          C       0.28928   0.43225   0.55225   0.57230
C          C       0.23023   0.37746   0.59384  -0.00765
C          C       0.33379   0.36571   0.64196  -0.09952
C          C       0.28395   0.31569   0.68157  -0.12482
C          C       0.12880   0.27668   0.67417  -0.04772
C          C       0.02686   0.28803   0.62535  -0.08485
C          C       0.07680   0.33793   0.58557  -0.08571
C          C       0.06726   0.22242   0.71494   0.47372
C          C       0.07633   0.06312   0.84707   0.12120
C          C       0.05909   0.11047   0.80418  -0.23486
C          C       0.15286   0.17221   0.80982   0.27961
C          C       0.25296   0.18369   0.86039  -0.25102
C          C       0.26244   0.13350   0.90093   0.10358
C          C       0.13060   0.54963   0.34312   0.54540
C          C       0.12642   0.59167   0.28871  -0.00532
C          C       0.24324   0.64702   0.28068  -0.09720
C          C       0.23810   0.68570   0.23050  -0.12932
C          C       0.11539   0.66958   0.18694  -0.05411
C          C      -0.00093   0.61374   0.19494  -0.10247
C          C       0.00386   0.57551   0.24539  -0.09272
C          C       0.09882   0.70814   0.13179   0.46626
C          C       0.20554   0.81629   0.08552   0.27839
C          C       0.30428   0.87590   0.09632  -0.24382
C          C       0.31868   0.92429   0.05356   0.12670
C          C       0.14816   0.85929   0.99016   0.11271
C          C       0.12735   0.80778   0.03029  -0.23422
C          C       0.21039   0.06781   0.05229   0.57275
C          C       0.26967   0.12212   0.09412  -0.00717
C          C       0.16530   0.13419   0.14220  -0.10015
C          C       0.21489   0.18417   0.18181  -0.12335
C          C       0.37082   0.22276   0.17444  -0.04722
C          C       0.47390   0.21104   0.12565  -0.08545
C          C       0.42385   0.16125   0.08586  -0.08770
C          C       0.43291   0.27680   0.21523   0.47443
C          C       0.42309   0.43757   0.34644   0.12128
C          C       0.44056   0.38986   0.30376  -0.23436
C          C       0.34705   0.32810   0.30997   0.28092
C          C       0.24691   0.31705   0.36084  -0.24972
C          C       0.23722   0.36756   0.40111   0.10226
C          C       0.37040   0.95167   0.84271   0.54632
C          C       0.37463   0.90944   0.78832  -0.00548
C          C       0.25766   0.85413   0.78057  -0.09640
C          C       0.26343   0.81511   0.73054  -0.12883
C          C       0.38717   0.83062   0.68682  -0.05489
C          C       0.50326   0.88655   0.69448  -0.10325
C          C       0.49772   0.92515   0.74478  -0.09113
C          C       0.40567   0.79092   0.63226   0.46643
C          C       0.29495   0.68377   0.58614   0.27969
C          C       0.19510   0.62441   0.59692  -0.24345
C          C       0.18072   0.57615   0.55406   0.12675
C          C       0.35271   0.64107   0.49056   0.11221
C          C       0.37388   0.69238   0.53083  -0.23617
C          C       0.71072   0.56775   0.44776   0.57214
C          C       0.76976   0.62254   0.40616  -0.00754
C          C       0.66619   0.63429   0.35805  -0.09962
C          C       0.71604   0.68430   0.31843  -0.12468
C          C       0.87119   0.72331   0.32583  -0.04791
C          C       0.97313   0.71196   0.37466  -0.08458
C          C       0.92319   0.66207   0.41444  -0.08581
C          C       0.93273   0.77757   0.28506   0.47407
C          C       0.92367   0.93687   0.15294   0.12149
C          C       0.94090   0.88953   0.19583  -0.23486
C          C       0.84714   0.82779   0.19018   0.27961
C          C       0.74703   0.81631   0.13962  -0.25078
C          C       0.73756   0.86650   0.09907   0.10345
C          C       0.86940   0.45037   0.65689   0.54539
C          C       0.87357   0.40833   0.71129  -0.00532
C          C       0.75675   0.35298   0.71933  -0.09707
C          C       0.76190   0.31430   0.76951  -0.12937
C          C       0.88460   0.33042   0.81306  -0.05406
C          C       0.00092   0.38626   0.80507  -0.10251
C          C      -0.00387   0.42449   0.75461  -0.09279
C          C       0.90117   0.29186   0.86821   0.46622
C          C       0.79446   0.18371   0.91449   0.27840
C          C       0.69572   0.12410   0.90369  -0.24391
C          C       0.68132   0.07571   0.94644   0.12665
C          C       0.85183   0.14071   0.00984   0.11261
C          C       0.87265   0.19222   0.96971  -0.23398
C          C       0.78961   0.93219   0.94771   0.57256
C          C       0.73032   0.87788   0.90588  -0.00707
C          C       0.83470   0.86581   0.85780  -0.10040
C          C       0.78510   0.81583   0.81819  -0.12331
C          C       0.62917   0.77724   0.82557  -0.04732
C          C       0.52610   0.78896   0.87436  -0.08538
C          C       0.57614   0.83875   0.91414  -0.08753
C          C       0.56708   0.72320   0.78477   0.47436
C          C       0.57690   0.56243   0.65357   0.12151
C          C       0.55943   0.61014   0.69624  -0.23435
C          C       0.65294   0.67190   0.69004   0.28079
C          C       0.75309   0.68295   0.63916  -0.24948
C          C       0.76277   0.63243   0.59889   0.10220
C          C       0.62960   0.04833   0.15730   0.54639
C          C       0.62537   0.09056   0.21168  -0.00562
C          C       0.74234   0.14587   0.21943  -0.09673
C          C       0.73657   0.18489   0.26946  -0.12851
C          C       0.61283   0.16938   0.31318  -0.05490
C          C       0.49674   0.11345   0.30553  -0.10293
C          C       0.50227   0.07485   0.25523  -0.09109
C          C       0.59432   0.20908   0.36775   0.46567
C          C       0.70504   0.31623   0.41386   0.27975
C          C       0.80489   0.37559   0.40308  -0.24340
C          C       0.81927   0.42385   0.44595   0.12687
C          C       0.64728   0.35893   0.50944   0.11246
C          C       0.62612   0.30761   0.46917  -0.23616
N          N       0.17821   0.07330   0.89423  -0.25081
N          N       0.15553   0.22203   0.76798  -0.37985
N          N       0.24000   0.91713   0.00123  -0.26322
N          N       0.19261   0.76943   0.13031  -0.37271
N          N       0.32124   0.42773   0.39392  -0.24961
N          N       0.34409   0.27785   0.26841  -0.38168
N          N       0.26013   0.58335   0.50167  -0.26170
N          N       0.30783   0.73056   0.63096  -0.37241
N          N       0.82178   0.92669   0.10577  -0.25111
N          N       0.84446   0.77797   0.23202  -0.37993
N          N       0.75999   0.08287  -0.00123  -0.26309
N          N       0.80739   0.23057   0.86969  -0.37286
N          N       0.67875   0.57227   0.60609  -0.24977
N          N       0.65590   0.72215   0.73160  -0.38149
N          N       0.73986   0.41665   0.49834  -0.26190
N          N       0.69216   0.26944   0.36904  -0.37203
O          O       0.19141   0.43998   0.50771  -0.57097
O          O       0.42531   0.46674   0.56281  -0.59443
O          O       0.25888   0.56589   0.37758  -0.58849
O          O       0.01710   0.50368   0.35130  -0.55558
O          O       0.00723   0.68708   0.09097  -0.45360
O          O       0.94899   0.18073   0.70305  -0.45594
O          O       0.30863   0.06039   0.00752  -0.57177
O          O       0.07402   0.03337   0.06284  -0.59385
O          O       0.24076   0.93634   0.87712  -0.58816
O          O       0.48509   0.99696   0.85109  -0.55574
O          O       0.50160   0.80998   0.59162  -0.45448
O          O       0.55304   0.31766   0.20321  -0.45599
O          O       0.80857   0.56002   0.49230  -0.57087
O          O       0.57469   0.53326   0.43719  -0.59432
O          O       0.74111   0.43410   0.62243  -0.58840
O          O       0.98290   0.49632   0.64870  -0.55578
O          O       0.99276   0.31292   0.90904  -0.45343
O          O       0.05102   0.81926   0.29695  -0.45630
O          O       0.69137   0.93960   0.99249  -0.57150
O          O       0.92597   0.96663   0.93717  -0.59386
O          O       0.75924   0.06366   0.12289  -0.58832
O          O       0.51491   0.00304   0.14891  -0.55558
O          O       0.49839   0.19002   0.40838  -0.45383
O          O       0.44694   0.68234   0.79680  -0.45577

