data_crystal

_audit_creation_method 'AiiDA-DDEC plugin'

_cell_length_a        14.64121
_cell_length_b        13.60342
_cell_length_c        14.93128

_cell_angle_alpha     104.27508
_cell_angle_beta     89.99591
_cell_angle_gamma     89.99064

_symmetry_space_group_name_Hall 'P 1'
_symmetry_space_group_name_H-M  'P 1'

loop_
_symmetry_equiv_pos_as_xyz
 'x,y,z'

loop_
_atom_site_label
_atom_site_type_symbol
_atom_site_fract_x
_atom_site_fract_y
_atom_site_fract_z
_atom_site_charge
Mn         Mn      0.12213   0.33195   0.84465   0.91424
Mn         Mn      0.96369   0.24545   0.98127   0.89807
Mn         Mn      0.62170   0.66778   0.65435   0.91600
Mn         Mn      0.46365   0.75462   0.51719   0.89875
Mn         Mn      0.87787   0.66805   0.15536   0.91423
Mn         Mn      0.03632   0.75454   0.01873   0.89817
Mn         Mn      0.37830   0.33221   0.34565   0.91576
Mn         Mn      0.53635   0.24538   0.48282   0.89875
Mn         Mn      0.00000   0.50000   0.00000   0.90148
Mn         Mn      0.50000   0.50000   0.50000   0.90075
Mn         Mn      0.00000   0.00000   0.00000   0.92466
Mn         Mn      0.50000  -0.00000   0.50000   0.92256
H          H       0.10014   0.34662   0.02973   0.39066
H          H       0.24912   0.80725   0.93218   0.13184
H          H       0.38370   0.77877   0.82412   0.12902
H          H       0.32410   0.45893   0.73102   0.14017
H          H       0.13361   0.84516   0.81597   0.12401
H          H       0.25168   0.80669   0.69024   0.12444
H          H       0.26787   0.12127   0.68284   0.12915
H          H       0.07589   0.16722   0.19236   0.02968
H          H       0.59996   0.65315   0.46873   0.39140
H          H       0.74918   0.19265   0.56790   0.13231
H          H       0.88404   0.22094   0.67574   0.12585
H          H       0.82463   0.54069   0.76930   0.14114
H          H       0.63245   0.15447   0.68372   0.12335
H          H       0.75144   0.19323   0.80856   0.12052
H          H       0.76886   0.87877   0.81585   0.12998
H          H       0.57552   0.83460   0.30695   0.03072
H          H       0.89986   0.65338   0.97027   0.39037
H          H       0.75088   0.19275   0.06783   0.13186
H          H       0.61630   0.22123   0.17588   0.12902
H          H       0.67591   0.54107   0.26898   0.14008
H          H       0.86639   0.15484   0.18404   0.12406
H          H       0.74833   0.19331   0.30976   0.12429
H          H       0.73214   0.87873   0.31716   0.12919
H          H       0.92411   0.83277   0.80764   0.02941
H          H       0.40005   0.34684   0.53128   0.39134
H          H       0.25082   0.80735   0.43210   0.13230
H          H       0.11597   0.77905   0.32426   0.12573
H          H       0.17538   0.45931   0.23070   0.14108
H          H       0.36755   0.84553   0.31628   0.12343
H          H       0.24857   0.80677   0.19144   0.12376
H          H       0.23114   0.12123   0.18416   0.12975
H          H       0.42449   0.16540   0.69306   0.03084
C          C       0.23448   0.54832   0.83847   0.12817
C          C       0.21229   0.64750   0.89146   0.12493
C          C       0.26592   0.73252   0.88944  -0.14830
C          C       0.33987   0.71619   0.83008  -0.10438
C          C       0.35886   0.61851   0.77213  -0.03316
C          C       0.30772   0.53297   0.77583  -0.16815
C          C       0.43269   0.61009   0.70167   0.59548
C          C       0.17377   0.08448   0.78397   0.12320
C          C       0.13625   0.00605   0.82036   0.13148
C          C       0.16303   0.90425   0.78758  -0.15144
C          C       0.22783   0.88382   0.71835  -0.10553
C          C       0.26594   0.96165   0.68107  -0.04265
C          C       0.23924   0.06288   0.71289  -0.16835
C          C       0.33757   0.93101   0.60791   0.58885
C          C       0.06233   0.20675   0.13766   0.48314
C          C       0.73484   0.45162   0.66144   0.12703
C          C       0.71258   0.35245   0.60855   0.12872
C          C       0.76610   0.26727   0.61063  -0.14989
C          C       0.84005   0.28353   0.66991  -0.10091
C          C       0.85899   0.38120   0.72780  -0.03482
C          C       0.80791   0.46690   0.72428  -0.16751
C          C       0.93277   0.38995   0.79830   0.59693
C          C       0.67373   0.91521   0.71531   0.12284
C          C       0.63571   0.99366   0.67929   0.13302
C          C       0.66235   0.09549   0.71193  -0.15269
C          C       0.72748   0.11610   0.78083  -0.10065
C          C       0.76606   0.03831   0.81784  -0.04509
C          C       0.73958   0.93702   0.78605  -0.16842
C          C       0.83776   0.06905   0.89095   0.58870
C          C       0.56222   0.79525   0.36191   0.48215
C          C       0.76553   0.45168   0.16153   0.12833
C          C       0.78772   0.35250   0.10854   0.12465
C          C       0.73408   0.26747   0.11057  -0.14825
C          C       0.66013   0.28380   0.16992  -0.10439
C          C       0.64114   0.38149   0.22787  -0.03312
C          C       0.69229   0.46703   0.22418  -0.16826
C          C       0.56732   0.38991   0.29833   0.59535
C          C       0.82624   0.91552   0.21604   0.12291
C          C       0.86375   0.99395   0.17964   0.13160
C          C       0.83698   0.09575   0.21242  -0.15171
C          C       0.77218   0.11618   0.28165  -0.10526
C          C       0.73407   0.03835   0.31893  -0.04288
C          C       0.76077   0.93712   0.28712  -0.16804
C          C       0.66244   0.06898   0.39209   0.58883
C          C       0.93767   0.79325   0.86234   0.48334
C          C       0.26517   0.54838   0.33856   0.12688
C          C       0.28742   0.64754   0.39146   0.12881
C          C       0.23391   0.73273   0.38937  -0.14987
C          C       0.15995   0.71646   0.33009  -0.10123
C          C       0.14102   0.61880   0.27220  -0.03496
C          C       0.19210   0.53310   0.27573  -0.16722
C          C       0.06723   0.61005   0.20170   0.59691
C          C       0.32627   0.08478   0.28469   0.12281
C          C       0.36430   0.00634   0.32071   0.13288
C          C       0.33765   0.90451   0.28808  -0.15244
C          C       0.27252   0.88390   0.21918  -0.10339
C          C       0.23395   0.96169   0.18216  -0.04507
C          C       0.26043   0.06298   0.21395  -0.16847
C          C       0.16225   0.93094   0.10905   0.58895
C          C       0.43779   0.20474   0.63809   0.48233
N          N       0.13397   0.64001   0.93938  -0.22230
N          N       0.11069   0.54258   0.91875  -0.02891
N          N       0.16948   0.48373   0.85928  -0.26887
N          N       0.13278   0.17352   0.83100  -0.26231
N          N       0.07318   0.14869   0.89094  -0.03651
N          N       0.07417   0.04988   0.88676  -0.22160
N          N       0.63426   0.35995   0.56069  -0.22320
N          N       0.61113   0.45746   0.58112  -0.03113
N          N       0.66998   0.51627   0.64048  -0.26846
N          N       0.63256   0.82618   0.66855  -0.26254
N          N       0.57237   0.85106   0.60915  -0.03599
N          N       0.57319   0.94986   0.61339  -0.22194
N          N       0.86603   0.35999   0.06062  -0.22199
N          N       0.88932   0.45742   0.08125  -0.02884
N          N       0.83053   0.51627   0.14072  -0.26903
N          N       0.86722   0.82648   0.16901  -0.26221
N          N       0.92683   0.85131   0.10906  -0.03642
N          N       0.92584   0.95012   0.11324  -0.22165
N          N       0.36575   0.64004   0.43931  -0.22338
N          N       0.38887   0.54254   0.41888  -0.03052
N          N       0.33003   0.48373   0.35953  -0.26851
N          N       0.36744   0.17382   0.33145  -0.26278
N          N       0.42764   0.14893   0.39086  -0.03585
N          N       0.42682   0.05014   0.38661  -0.22157
O          O       0.06484   0.35519   0.97575  -0.84747
O          O       0.99633   0.16596   0.08050  -0.55717
O          O       0.10687   0.28325   0.13363  -0.49158
O          O       0.36126   0.83728   0.58935  -0.56392
O          O       0.37055   0.99646   0.56910  -0.56376
O          O       0.42142   0.54665   0.62475  -0.54942
O          O       0.50143   0.67066   0.72315  -0.56533
O          O       0.56504   0.64457   0.52293  -0.84880
O          O       0.49652   0.83605   0.41952  -0.55660
O          O       0.60644   0.71850   0.36599  -0.49061
O          O       0.86142   0.16276   0.90958  -0.56252
O          O       0.87095   0.00348   0.92951  -0.56270
O          O       0.92157   0.45354   0.87500  -0.54880
O          O       0.00158   0.32928   0.77678  -0.56619
O          O       0.93516   0.64480   0.02425  -0.84726
O          O       0.00367   0.83404   0.91950  -0.55713
O          O       0.89313   0.71675   0.86637  -0.49168
O          O       0.63874   0.16272   0.41066  -0.56404
O          O       0.62946   0.00353   0.43090  -0.56355
O          O       0.57858   0.45335   0.37525  -0.54932
O          O       0.49858   0.32933   0.27685  -0.56533
O          O       0.43496   0.35543   0.47707  -0.84872
O          O       0.50348   0.16395   0.58048  -0.55641
O          O       0.39356   0.28149   0.63402  -0.49102
O          O       0.13858   0.83724   0.09042  -0.56292
O          O       0.12906   0.99652   0.07050  -0.56307
O          O       0.07843   0.54645   0.12500  -0.54868
O          O      -0.00157   0.67072   0.22323  -0.56636

