data_crystal

_audit_creation_method 'AiiDA-DDEC plugin'

_cell_length_a         9.95740
_cell_length_b        17.83978
_cell_length_c        20.50323

_cell_angle_alpha     89.98741
_cell_angle_beta     90.02368
_cell_angle_gamma     89.60291

_symmetry_space_group_name_Hall 'P 1'
_symmetry_space_group_name_H-M  'P 1'

loop_
_symmetry_equiv_pos_as_xyz
 'x,y,z'

loop_
_atom_site_label
_atom_site_type_symbol
_atom_site_fract_x
_atom_site_fract_y
_atom_site_fract_z
_atom_site_charge
Gd         Gd      0.17783   0.49448   0.24180   2.03032
Gd         Gd      0.25047   0.99795   0.49468   2.02493
Gd         Gd      0.32206   0.50552   0.74178   2.02999
Gd         Gd      0.24833   0.00188   0.99383   2.02608
Gd         Gd      0.82217   0.50553   0.75820   2.03037
Gd         Gd      0.74953   0.00206   0.50532   2.02481
Gd         Gd      0.67794   0.49448   0.25822   2.03007
Gd         Gd      0.75167  -0.00188   0.00617   2.02608
H          H       0.15993   0.68256   0.32964   0.12232
H          H       0.18714   0.80168   0.39298   0.12757
H          H       0.75759   0.82835   0.40097   0.12315
H          H       0.73047   0.70809   0.33902   0.12596
H          H       0.64828   0.30138   0.31991   0.11945
H          H       0.23752   0.32105   0.38332   0.12819
H          H       0.26775   0.20712   0.45329   0.11692
H          H       0.67881   0.18829   0.39031   0.12615
H          H       0.34009   0.31750   0.82997   0.12255
H          H       0.31277   0.19793   0.89257   0.12660
H          H       0.74236   0.17117   0.90069   0.12318
H          H       0.76962   0.29181   0.83933   0.12613
H          H       0.85197   0.69847   0.81982   0.11953
H          H       0.26261   0.67895   0.88357   0.12822
H          H       0.23176   0.79260   0.95381   0.11631
H          H       0.82109   0.81144   0.89050   0.12673
H          H       0.84007   0.31745   0.67036   0.12249
H          H       0.81286   0.19833   0.60702   0.12753
H          H       0.24241   0.17166   0.59903   0.12301
H          H       0.26953   0.29192   0.66099   0.12601
H          H       0.35172   0.69863   0.68009   0.11938
H          H       0.76248   0.67896   0.61668   0.12810
H          H       0.73225   0.79289   0.54671   0.11704
H          H       0.32119   0.81172   0.60969   0.12622
H          H       0.65991   0.68251   0.17003   0.12244
H          H       0.68723   0.80208   0.10743   0.12662
H          H       0.25764   0.82883   0.09931   0.12335
H          H       0.23038   0.70820   0.16067   0.12589
H          H       0.14802   0.30154   0.18018   0.11953
H          H       0.73739   0.32106   0.11643   0.12834
H          H       0.76824   0.20740   0.04619   0.11627
H          H       0.17891   0.18856   0.10950   0.12660
C          C       0.92824   0.61634   0.29525   0.67497
C          C       0.94351   0.68845   0.33094  -0.04206
C          C       0.07279   0.71450   0.34587  -0.08424
C          C       0.08804   0.78061   0.38085  -0.08431
C          C       0.97423   0.82165   0.40057  -0.03765
C          C       0.84484   0.79610   0.38516  -0.08729
C          C       0.82963   0.72947   0.35063  -0.08531
C          C       0.99290   0.89253   0.43767   0.67304
C          C       0.42335   0.38398   0.30376   0.66644
C          C       0.56577   0.28046   0.34923  -0.07957
C          C       0.33347   0.29166   0.38518  -0.07751
C          C       0.49240   0.12186   0.46584   0.66668
C          C       0.35044   0.22851   0.42431  -0.08353
C          C       0.44087   0.31760   0.34709  -0.04086
C          C       0.58287   0.21763   0.38854  -0.07764
C          C       0.47504   0.19102   0.42594  -0.04370
C          C       0.57167   0.38361   0.79533   0.67438
C          C       0.55651   0.31147   0.83111  -0.04148
C          C       0.42724   0.28535   0.84595  -0.08368
C          C       0.41195   0.21898   0.88061  -0.08469
C          C       0.52569   0.17774   0.90021  -0.04067
C          C       0.65506   0.20347   0.88496  -0.08590
C          C       0.67038   0.27032   0.85071  -0.08515
C          C       0.50742   0.10685   0.93743   0.67421
C          C       0.07680   0.61601   0.80375   0.66764
C          C       0.93434   0.71938   0.84927  -0.08034
C          C       0.16657   0.70821   0.88538  -0.07891
C          C       0.00740   0.87780   0.96610   0.66594
C          C       0.14940   0.77126   0.92457  -0.08230
C          C       0.05932   0.68234   0.84712  -0.04103
C          C       0.91706   0.78213   0.88863  -0.07677
C          C       0.02483   0.80874   0.92611  -0.04349
C          C       0.07175   0.38367   0.70475   0.67519
C          C       0.05649   0.31156   0.66906  -0.04219
C          C       0.92721   0.28550   0.65413  -0.08426
C          C       0.91196   0.21939   0.61915  -0.08416
C          C       0.02577   0.17836   0.59943  -0.03799
C          C       0.15516   0.20390   0.61484  -0.08731
C          C       0.17037   0.27053   0.64937  -0.08521
C          C       0.00710   0.10747   0.56233   0.67362
C          C       0.57665   0.61603   0.69624   0.66665
C          C       0.43423   0.71955   0.65077  -0.07958
C          C       0.66653   0.70835   0.61482  -0.07762
C          C       0.50760   0.87814   0.53416   0.66631
C          C       0.64956   0.77149   0.57569  -0.08362
C          C       0.55913   0.68241   0.65291  -0.04099
C          C       0.41713   0.78237   0.61146  -0.07749
C          C       0.52496   0.80899   0.57406  -0.04351
C          C       0.42833   0.61640   0.20467   0.67487
C          C       0.44349   0.68853   0.16889  -0.04167
C          C       0.57276   0.71466   0.15405  -0.08382
C          C       0.58805   0.78103   0.11939  -0.08451
C          C       0.47431   0.82226   0.09979  -0.04054
C          C       0.34493   0.79654   0.11504  -0.08600
C          C       0.32962   0.72969   0.14929  -0.08497
C          C       0.49258   0.89315   0.06257   0.67384
C          C       0.92320   0.38399   0.19625   0.66738
C          C       0.06566   0.28062   0.15073  -0.08033
C          C       0.83342   0.29179   0.11462  -0.07869
C          C       0.99260   0.12221   0.03390   0.66607
C          C       0.85060   0.22875   0.07543  -0.08247
C          C       0.94068   0.31767   0.15288  -0.04099
C          C       0.08294   0.21787   0.11137  -0.07688
C          C       0.97517   0.19127   0.07389  -0.04329
N          N       0.19393   0.47805   0.10501   0.72843
N          N       0.26008   0.02856   0.36005   0.73220
N          N       0.30610   0.52192   0.60499   0.72892
N          N       0.23180   0.97048   0.85922   0.73146
N          N       0.80607   0.52196   0.89499   0.72818
N          N       0.73991   0.97144   0.63995   0.73218
N          N       0.69390   0.47809   0.39502   0.72906
N          N       0.76820   0.02952   0.14078   0.73140
O          O       0.03310   0.57507   0.28883  -0.70744
O          O       0.10677   0.52242   0.13303  -0.54759
O          O       0.27427   0.44302   0.14540  -0.56240
O          O       0.52041   0.40219   0.26640  -0.69471
O          O       0.31173   0.42016   0.30509  -0.68181
O          O       0.81352   0.59833   0.27289  -0.68304
O          O       0.10655   0.90469   0.46392  -0.67950
O          O       0.17279   0.06052   0.39863  -0.55310
O          O       0.34113   0.98113   0.38883  -0.55662
O          O       0.39389   0.09841   0.49989  -0.69002
O          O       0.60612   0.08789   0.46389  -0.69009
O          O       0.89407   0.93875   0.44153  -0.69937
O          O       0.20007   0.46975   0.04610  -0.30626
O          O       0.26626   0.04189   0.30184  -0.31064
O          O       0.46684   0.42492   0.78891  -0.70723
O          O       0.39337   0.47760   0.63301  -0.54782
O          O       0.22563   0.55690   0.64534  -0.56280
O          O       0.97968   0.59779   0.76640  -0.69523
O          O       0.18841   0.57984   0.80506  -0.68223
O          O       0.68637   0.40158   0.77294  -0.68273
O          O       0.39375   0.09467   0.96376  -0.68306
O          O       0.32251   0.93985   0.89675  -0.55398
O          O       0.14743   0.01512   0.88915  -0.55641
O          O       0.10586   0.90138   0.00016  -0.68977
O          O       0.89358   0.91165   0.96410  -0.68817
O          O       0.60664   0.06100   0.94167  -0.69722
O          O       0.29995   0.53024   0.54608  -0.30612
O          O       0.22597   0.95827   0.80084  -0.31112
O          O       0.96689   0.42494   0.71118  -0.70744
O          O       0.89323   0.47759   0.86697  -0.54792
O          O       0.72573   0.55698   0.85460  -0.56199
O          O       0.47959   0.59782   0.73360  -0.69467
O          O       0.68827   0.57985   0.69491  -0.68205
O          O       0.18648   0.40167   0.72711  -0.68309
O          O       0.89345   0.09532   0.53608  -0.67956
O          O       0.82721   0.93948   0.60137  -0.55344
O          O       0.65887   0.01887   0.61117  -0.55621
O          O       0.60611   0.90159   0.50011  -0.68995
O          O       0.39388   0.91211   0.53611  -0.68986
O          O       0.10593   0.06126   0.55847  -0.69993
O          O       0.79993   0.53025   0.95390  -0.30608
O          O       0.73374   0.95812   0.69816  -0.31068
O          O       0.53316   0.57509   0.21110  -0.70756
O          O       0.60663   0.52241   0.36699  -0.54746
O          O       0.77437   0.44311   0.35466  -0.56318
O          O       0.02032   0.40222   0.23360  -0.69501
O          O       0.81159   0.42017   0.19494  -0.68212
O          O       0.31363   0.59843   0.22706  -0.68287
O          O       0.60625   0.90534   0.03624  -0.68311
O          O       0.67749   0.06015   0.10325  -0.55361
O          O       0.85257   0.98489   0.11085  -0.55688
O          O       0.89414   0.09863  -0.00016  -0.68988
O          O       0.10642   0.08836   0.03590  -0.68838
O          O       0.39336   0.93900   0.05833  -0.69674
O          O       0.70004   0.46977   0.45392  -0.30621
O          O       0.77403   0.04174   0.19916  -0.31093

