data_crystal

_audit_creation_method 'AiiDA-DDEC plugin'

_cell_length_a        10.70979
_cell_length_b        16.47652
_cell_length_c        22.17296

_cell_angle_alpha     93.95380
_cell_angle_beta     90.00000
_cell_angle_gamma     89.99490

_symmetry_space_group_name_Hall 'P 1'
_symmetry_space_group_name_H-M  'P 1'

loop_
_symmetry_equiv_pos_as_xyz
 'x,y,z'

loop_
_atom_site_label
_atom_site_type_symbol
_atom_site_fract_x
_atom_site_fract_y
_atom_site_fract_z
_atom_site_charge
Mn         Mn      0.66543   0.73571   0.13529   1.06472
Mn         Mn      0.72735   0.75858   0.96176   1.07897
Mn         Mn      0.91376   0.77992   0.81475   1.11375
Mn         Mn      0.16527   0.26435   0.36473   1.06460
Mn         Mn      0.22728   0.24138   0.53826   1.07918
Mn         Mn      0.41400   0.22007   0.68530   1.11422
Mn         Mn      0.33456   0.26430   0.86471   1.06472
Mn         Mn      0.27264   0.24142   0.03824   1.07891
Mn         Mn      0.08623   0.22008   0.18525   1.11380
Mn         Mn      0.83473   0.73565   0.63526   1.06473
Mn         Mn      0.77271   0.75863   0.46173   1.07923
Mn         Mn      0.58599   0.77993   0.31469   1.11409
H          H       0.75405   0.54627   0.14132   0.13386
H          H       0.90886   0.56099   0.11733   0.13466
H          H       0.69638   0.42775   0.98874   0.08376
H          H       0.85318   0.45043   0.97126   0.08218
H          H       0.74778   0.41437   0.09076   0.09158
H          H       0.90647   0.42375   0.07183   0.10673
H          H       0.71357   0.57969   0.96589   0.28273
H          H       0.78623   0.56234   0.74319   0.12684
H          H       0.38057   0.07520   0.91282   0.12770
H          H       0.04148   0.73953   0.06989   0.13323
H          H       0.67749   0.42052   0.70785   0.13978
H          H       0.52685   0.96182   0.95545   0.13098
H          H       0.27198   0.74684   0.11663   0.14367
H          H       0.25392   0.45374   0.35865   0.13390
H          H       0.40876   0.43900   0.38260   0.13462
H          H       0.19628   0.57227   0.51119   0.08341
H          H       0.35311   0.54968   0.52866   0.08196
H          H       0.24770   0.58568   0.40918   0.09127
H          H       0.40641   0.57624   0.42809   0.10652
H          H       0.21363   0.42035   0.53408   0.28251
H          H       0.28615   0.43759   0.75687   0.12677
H          H       0.88059   0.92471   0.58719   0.12788
H          H       0.54139   0.26022   0.43015   0.13333
H          H       0.17742   0.57941   0.79227   0.13952
H          H       0.02688   0.03816   0.54459   0.13089
H          H       0.77177   0.25317   0.38336   0.14367
H          H       0.24594   0.45373   0.85868   0.13378
H          H       0.09113   0.43901   0.88267   0.13476
H          H       0.30362   0.57225   0.01125   0.08362
H          H       0.14682   0.54957   0.02873   0.08227
H          H       0.25221   0.58563   0.90924   0.09164
H          H       0.09353   0.57625   0.92817   0.10692
H          H       0.28642   0.42032   0.03410   0.28253
H          H       0.21377   0.43767   0.25681   0.12688
H          H       0.61942   0.92481   0.08718   0.12763
H          H       0.95852   0.26048   0.93010   0.13320
H          H       0.32250   0.57948   0.29215   0.13973
H          H       0.47314   0.03819   0.04455   0.13109
H          H       0.72802   0.25317   0.88336   0.14388
H          H       0.74607   0.54626   0.64135   0.13369
H          H       0.59123   0.56100   0.61740   0.13481
H          H       0.80372   0.42773   0.48881   0.08325
H          H       0.64689   0.45033   0.47133   0.08238
H          H       0.75229   0.41433   0.59081   0.09086
H          H       0.59358   0.42377   0.57191   0.10653
H          H       0.78636   0.57965   0.46592   0.28271
H          H       0.71384   0.56242   0.24313   0.12692
H          H       0.11940   0.07530   0.41280   0.12772
H          H       0.45861   0.73978   0.56985   0.13316
H          H       0.82257   0.42060   0.20773   0.13961
H          H       0.97312   0.96184   0.45541   0.13071
H          H       0.22823   0.74683   0.61663   0.14358
C          C       0.81614   0.53984   0.10192  -0.30553
C          C       0.77709   0.46511   0.00334  -0.01141
C          C       0.81537   0.45363   0.06982  -0.16458
C          C       0.76830   0.59462   0.05545   0.54519
C          C       0.71510   0.53167   0.76798  -0.11599
C          C       0.45912   0.04666   0.88876  -0.10833
C          C       0.12720   0.74746   0.04483  -0.11696
C          C       0.67016   0.56414   0.82321  -0.13857
C          C       0.65733   0.45750   0.74916  -0.11030
C          C       0.53685   0.98714   0.91177  -0.11555
C          C       0.71011   0.64050   0.85569   0.59764
C          C       0.62967   0.96097   0.87104  -0.13623
C          C       0.24827   0.75129   0.06935  -0.11197
C          C       0.01511   0.75265   0.94357   0.60616
C          C       0.48511   0.36307   0.78286   0.59771
C          C       0.56711   0.43471   0.78967  -0.13566
C          C       0.33899   0.76197   0.02562  -0.14275
C          C       0.44091   0.12540   0.79207   0.60741
C          C       0.72330   0.89684   0.87774   0.61177
C          C       0.12650   0.75554   0.98281  -0.13502
C          C       0.47430   0.76482   0.03686   0.60918
C          C       0.49431   0.06560   0.83090  -0.14745
C          C       0.31605   0.46017   0.39802  -0.30553
C          C       0.27704   0.53493   0.49660  -0.01065
C          C       0.31529   0.54640   0.43011  -0.16374
C          C       0.26831   0.40539   0.44451   0.54526
C          C       0.21513   0.46832   0.73204  -0.11629
C          C       0.95913   0.95327   0.61125  -0.10873
C          C       0.62708   0.25231   0.45521  -0.11707
C          C       0.17028   0.43595   0.67676  -0.13851
C          C       0.15735   0.54250   0.75091  -0.11024
C          C       0.03688   0.01279   0.58824  -0.11462
C          C       0.21032   0.35957   0.64426   0.59815
C          C       0.12967   0.03897   0.62897  -0.13711
C          C       0.74811   0.24869   0.43065  -0.11125
C          C       0.51507   0.24694   0.55643   0.60656
C          C       0.98496   0.63692   0.71728   0.59656
C          C       0.06715   0.56538   0.71042  -0.13544
C          C       0.83890   0.23807   0.47436  -0.14267
C          C       0.94089   0.87459   0.70793   0.60773
C          C       0.22316   0.10316   0.62230   0.61182
C          C       0.62645   0.24416   0.51721  -0.13465
C          C       0.97423   0.23520   0.46316   0.60861
C          C       0.99433   0.93437   0.66911  -0.14770
C          C       0.18386   0.46016   0.89807  -0.30515
C          C       0.22290   0.53489   0.99666  -0.01133
C          C       0.18462   0.54638   0.93018  -0.16459
C          C       0.23169   0.40539   0.94454   0.54505
C          C       0.28489   0.46833   0.23202  -0.11609
C          C       0.54087   0.95334   0.11124  -0.10859
C          C       0.87279   0.25254   0.95517  -0.11700
C          C       0.32983   0.43586   0.17679  -0.13857
C          C       0.34267   0.54251   0.25084  -0.11032
C          C       0.46314   0.01286   0.08822  -0.11528
C          C       0.28989   0.35951   0.14430   0.59757
C          C       0.37032   0.03904   0.12896  -0.13604
C          C       0.75173   0.24871   0.93065  -0.11183
C          C       0.98488   0.24735   0.05643   0.60613
C          C       0.51489   0.63694   0.21714   0.59757
C          C       0.43289   0.56530   0.21033  -0.13550
C          C       0.66100   0.23803   0.97437  -0.14275
C          C       0.55908   0.87460   0.20793   0.60772
C          C       0.27669   0.10316   0.12226   0.61171
C          C       0.87349   0.24446   0.01719  -0.13510
C          C       0.52569   0.23518   0.96314   0.60886
C          C       0.50569   0.93440   0.16910  -0.14754
C          C       0.68394   0.53983   0.60197  -0.30563
C          C       0.72296   0.46507   0.50340  -0.01084
C          C       0.68470   0.45360   0.56989  -0.16347
C          C       0.73168   0.59461   0.55548   0.54522
C          C       0.78486   0.53168   0.26796  -0.11588
C          C       0.04086   0.04673   0.38875  -0.10878
C          C       0.37291   0.74769   0.54479  -0.11747
C          C       0.82971   0.56405   0.32324  -0.13876
C          C       0.84264   0.45751   0.24909  -0.11038
C          C       0.96311   0.98722   0.41176  -0.11491
C          C       0.78968   0.64044   0.35573   0.59829
C          C       0.87033   0.96103   0.37102  -0.13686
C          C       0.25188   0.75131   0.56934  -0.11133
C          C       0.48493   0.75307   0.44356   0.60693
C          C       0.01503   0.36308   0.28272   0.59665
C          C       0.93284   0.43462   0.28957  -0.13527
C          C       0.16109   0.76193   0.52564  -0.14260
C          C       0.05910   0.12542   0.29207   0.60770
C          C       0.77683   0.89685   0.37769   0.61148
C          C       0.37355   0.75585   0.48278  -0.13461
C          C       0.02576   0.76481   0.53684   0.60858
C          C       0.00566   0.06563   0.33089  -0.14781
S          S       0.55496   0.50382   0.85173   0.17314
S          S       0.62186   0.00942   0.80467   0.22335
S          S       0.27507   0.76891   0.95458   0.21330
S          S       0.05509   0.49640   0.64829   0.17343
S          S       0.12189   0.99055   0.69534   0.22317
S          S       0.77505   0.23096   0.54539   0.21290
S          S       0.44503   0.49618   0.14827   0.17317
S          S       0.37813   0.99058   0.19532   0.22322
S          S       0.72492   0.23110   0.04541   0.21315
S          S       0.94490   0.50360   0.35170   0.17303
S          S       0.87810   0.00946   0.30465   0.22351
S          S       0.22494   0.76905   0.45461   0.21337
N          N       0.74571   0.55177   0.00348  -0.31787
N          N       0.24580   0.44825   0.49649  -0.31794
N          N       0.25428   0.44824   0.99651  -0.31793
N          N       0.75419   0.55175   0.50351  -0.31803
O          O       0.67548   0.65136   0.91186  -0.58762
O          O       0.77297   0.69049   0.82761  -0.56102
O          O       0.54910   0.77779   0.99379  -0.58330
O          O       0.91258   0.73454   0.96942  -0.59871
O          O       0.39381   0.36129   0.82117  -0.60274
O          O       0.34159   0.16585   0.81000  -0.60467
O          O       0.03041   0.76625   0.88818  -0.55864
O          O       0.49427   0.13494   0.74210  -0.52255
O          O       0.78474   0.87297   0.83076  -0.56279
O          O       0.73647   0.86944   0.93027  -0.58884
O          O       0.50592   0.75343   0.09113  -0.57247
O          O       0.50801   0.31027   0.74045  -0.53817
O          O       0.75113   0.67123   0.06359  -0.56447
O          O       0.17548   0.34861   0.58813  -0.58752
O          O       0.27350   0.30967   0.67231  -0.56175
O          O       0.04906   0.22222   0.50621  -0.58317
O          O       0.41253   0.26489   0.53054  -0.59814
O          O       0.89391   0.63883   0.67887  -0.60171
O          O       0.84161   0.83412   0.69001  -0.60471
O          O       0.53042   0.23367   0.61187  -0.55931
O          O       0.99431   0.86504   0.75790  -0.52338
O          O       0.28428   0.12717   0.66934  -0.56299
O          O       0.23638   0.13050   0.56975  -0.58879
O          O       0.00592   0.24656   0.40890  -0.57242
O          O       0.00752   0.68942   0.75997  -0.53748
O          O       0.25125   0.32877   0.43640  -0.56476
O          O       0.32452   0.34864   0.08814  -0.58745
O          O       0.22702   0.30952   0.17239  -0.56117
O          O       0.45089   0.22221   0.00621  -0.58331
O          O       0.08741   0.26546   0.03058  -0.59855
O          O       0.60618   0.63871   0.17883  -0.60278
O          O       0.65840   0.83416   0.19000  -0.60505
O          O       0.96959   0.23375   0.11182  -0.55874
O          O       0.50572   0.86506   0.25790  -0.52257
O          O       0.21525   0.12704   0.16924  -0.56299
O          O       0.26353   0.13057   0.06973  -0.58861
O          O       0.49407   0.24658   0.90887  -0.57214
O          O       0.49198   0.68973   0.25954  -0.53806
O          O       0.24887   0.32878   0.93641  -0.56462
O          O       0.82452   0.65139   0.41186  -0.58800
O          O       0.72650   0.69033   0.32769  -0.56139
O          O       0.95093   0.77778   0.49378  -0.58290
O          O       0.58747   0.73512   0.46946  -0.59857
O          O       0.10608   0.36118   0.32113  -0.60204
O          O       0.15839   0.16588   0.30998  -0.60489
O          O       0.46957   0.76633   0.38812  -0.55919
O          O       0.00569   0.13497   0.24210  -0.52304
O          O       0.71571   0.87283   0.33066  -0.56251
O          O       0.76361   0.86950   0.43025  -0.58884
O          O       0.99407   0.75345   0.59110  -0.57268
O          O       0.99247   0.31059   0.24003  -0.53733
O          O       0.74874   0.67123   0.56360  -0.56459

