data_crystal

_audit_creation_method 'AiiDA-DDEC plugin'

_cell_length_a        10.19286
_cell_length_b        10.19286
_cell_length_c        27.64801

_cell_angle_alpha     90.00000
_cell_angle_beta     90.00000
_cell_angle_gamma     90.00000

_symmetry_space_group_name_Hall 'P 1'
_symmetry_space_group_name_H-M  'P 1'

loop_
_symmetry_equiv_pos_as_xyz
 'x,y,z'

loop_
_atom_site_label
_atom_site_type_symbol
_atom_site_fract_x
_atom_site_fract_y
_atom_site_fract_z
_atom_site_charge
Ag         Ag      0.80230   0.61250   0.51177   0.25989
Ag         Ag      0.19769   0.38750   0.01177   0.25976
Ag         Ag      0.88750   0.30230   0.26177   0.25982
Ag         Ag      0.11250   0.69770   0.76177   0.25979
Ag         Ag      0.69769   0.11250   0.23823   0.25991
Ag         Ag      0.30230   0.88750   0.73823   0.25978
Ag         Ag      0.61250   0.80231   0.48823   0.25982
Ag         Ag      0.38750   0.19770   0.98823   0.25989
H          H       0.03618   0.74041   0.66404   0.10054
H          H       0.67125   0.95141   0.65260   0.11642
H          H       0.69099   0.00207   0.74125   0.11428
H          H       0.87945   0.90864   0.78790   0.09156
H          H       0.08428   0.93500   0.61605   0.11124
H          H       0.26141   0.96794   0.55577   0.10447
H          H       0.23156   0.87360   0.47151   0.10378
H          H       0.03947   0.72829   0.45628   0.08286
H          H       0.96382   0.25960   0.16403   0.10056
H          H       0.32875   0.04859   0.15260   0.11638
H          H       0.30901  -0.00207   0.24125   0.11430
H          H       0.12055   0.09136   0.28789   0.09151
H          H       0.91572   0.06500   0.11605   0.11129
H          H       0.73858   0.03206   0.05577   0.10458
H          H       0.76844   0.12640   0.97151   0.10379
H          H       0.96052   0.27170   0.95628   0.08278
H          H       0.75959   0.53618   0.41404   0.10054
H          H       0.54859   0.17125   0.40260   0.11641
H          H       0.49793   0.19099   0.49125   0.11428
H          H       0.59136   0.37945   0.53790   0.09150
H          H       0.56500   0.58428   0.36605   0.11124
H          H       0.53206   0.76141   0.30577   0.10448
H          H       0.62640   0.73156   0.22151   0.10374
H          H       0.77170   0.53948   0.20628   0.08283
H          H       0.24041   0.46381   0.91404   0.10046
H          H       0.45142   0.82874   0.90260   0.11638
H          H       0.50207   0.80901   0.99125   0.11423
H          H       0.40864   0.62055   0.03790   0.09161
H          H       0.43500   0.41572   0.86605   0.11126
H          H       0.46794   0.23859   0.80577   0.10447
H          H       0.37360   0.26844   0.72151   0.10377
H          H       0.22830   0.46053   0.70628   0.08285
H          H       0.46382   0.24040   0.08596   0.10059
H          H       0.82875   0.45141   0.09740   0.11639
H          H       0.80900   0.50206   0.00875   0.11414
H          H       0.62055   0.40864   0.96210   0.09148
H          H       0.41572   0.43500   0.13395   0.11124
H          H       0.23859   0.46794   0.19423   0.10447
H          H       0.26844   0.37360   0.27849   0.10379
H          H       0.46052   0.22829   0.29372   0.08284
H          H       0.53618   0.75959   0.58596   0.10056
H          H       0.17125   0.54859   0.59740   0.11643
H          H       0.19099   0.49793   0.50875   0.11428
H          H       0.37945   0.59136   0.46210   0.09153
H          H       0.58428   0.56500   0.63395   0.11124
H          H       0.76141   0.53206   0.69423   0.10447
H          H       0.73156   0.62640   0.77849   0.10379
H          H       0.53947   0.77170   0.79372   0.08286
H          H       0.74040   0.03618   0.33597   0.10055
H          H       0.95141   0.67125   0.34740   0.11642
H          H       0.00207   0.69099   0.25875   0.11430
H          H       0.90864   0.87945   0.21211   0.09150
H          H       0.93500   0.08428   0.38395   0.11125
H          H       0.96794   0.26141   0.44423   0.10444
H          H       0.87360   0.23156   0.52849   0.10378
H          H       0.72829   0.03948   0.54372   0.08287
H          H       0.25959   0.96382   0.83596   0.10056
H          H       0.04859   0.32875   0.84740   0.11640
H          H      -0.00207   0.30901   0.75875   0.11423
H          H       0.09137   0.12055   0.71210   0.09152
H          H       0.06500   0.91572   0.88395   0.11125
H          H       0.03206   0.73858   0.94423   0.10445
H          H       0.12640   0.76844   0.02849   0.10382
H          H       0.27171   0.96052   0.04372   0.08286
C          C       0.95736   0.79832   0.67969   0.01829
C          C       0.85638   0.84718   0.65037  -0.01828
C          C       0.75525   0.91802   0.67347  -0.08017
C          C       0.76549   0.94428   0.72271  -0.13420
C          C       0.86971   0.89212   0.74923   0.03258
C          C       0.85062   0.80565   0.59933   0.20029
C          C       0.96666   0.81222   0.56915   0.08387
C          C       0.07808   0.88897   0.58065  -0.13883
C          C       0.17557   0.90946   0.54667  -0.06541
C          C       0.15993   0.85621   0.49993  -0.15472
C          C       0.05283   0.77566   0.49125   0.06406
C          C       0.04265   0.20168   0.17969   0.01847
C          C       0.14362   0.15282   0.15037  -0.01834
C          C       0.24476   0.08198   0.17347  -0.08010
C          C       0.23451   0.05572   0.22270  -0.13423
C          C       0.13029   0.10788   0.24922   0.03280
C          C       0.14938   0.19434   0.09933   0.20049
C          C       0.03334   0.18778   0.06915   0.08379
C          C       0.92192   0.11103   0.08065  -0.13881
C          C       0.82443   0.09054   0.04667  -0.06553
C          C       0.84007   0.14379  -0.00008  -0.15467
C          C       0.94717   0.22434   0.99125   0.06416
C          C       0.70168   0.45735   0.42969   0.01833
C          C       0.65282   0.35638   0.40037  -0.01828
C          C       0.58198   0.25525   0.42347  -0.08012
C          C       0.55572   0.26549   0.47270  -0.13412
C          C       0.60788   0.36971   0.49922   0.03274
C          C       0.69434   0.35062   0.34933   0.20046
C          C       0.68778   0.46666   0.31915   0.08389
C          C       0.61103   0.57808   0.33065  -0.13872
C          C       0.59054   0.67556   0.29667  -0.06549
C          C       0.64379   0.65993   0.24992  -0.15463
C          C       0.72434   0.55282   0.24125   0.06401
C          C       0.29833   0.54264   0.92969   0.01854
C          C       0.34718   0.64361   0.90037  -0.01851
C          C       0.41802   0.74475   0.92347  -0.08010
C          C       0.44428   0.73451   0.97271  -0.13406
C          C       0.39212   0.63029  -0.00077   0.03258
C          C       0.30566   0.64938   0.84933   0.20052
C          C       0.31222   0.53334   0.81915   0.08376
C          C       0.38897   0.42192   0.83065  -0.13865
C          C       0.40946   0.32443   0.79667  -0.06546
C          C       0.35621   0.34008   0.74992  -0.15461
C          C       0.27566   0.44718   0.74125   0.06397
C          C       0.54265   0.29832   0.07031   0.01841
C          C       0.64362   0.34718   0.09963  -0.01830
C          C       0.74475   0.41802   0.07653  -0.08018
C          C       0.73451   0.44427   0.02730  -0.13414
C          C       0.63029   0.39212   0.00078   0.03279
C          C       0.64938   0.30565   0.15067   0.20056
C          C       0.53334   0.31221   0.18085   0.08377
C          C       0.42192   0.38896   0.16935  -0.13872
C          C       0.32443   0.40946   0.20333  -0.06550
C          C       0.34007   0.35621   0.25008  -0.15465
C          C       0.44717   0.27566   0.25875   0.06407
C          C       0.45735   0.70168   0.57031   0.01838
C          C       0.35638   0.65282   0.59963  -0.01837
C          C       0.25525   0.58198   0.57653  -0.08021
C          C       0.26549   0.55572   0.52730  -0.13408
C          C       0.36971   0.60788   0.50078   0.03267
C          C       0.35062   0.69434   0.65067   0.20060
C          C       0.46666   0.68778   0.68085   0.08382
C          C       0.57808   0.61103   0.66935  -0.13876
C          C       0.67556   0.59054   0.70333  -0.06538
C          C       0.65992   0.64379   0.75008  -0.15468
C          C       0.55282   0.72434   0.75875   0.06405
C          C       0.79832   0.95735   0.32031   0.01854
C          C       0.84717   0.85638   0.34963  -0.01835
C          C       0.91801   0.75524   0.32653  -0.08006
C          C       0.94427   0.76548   0.27730  -0.13429
C          C       0.89212   0.86971   0.25078   0.03280
C          C       0.80565   0.85061   0.40067   0.20044
C          C       0.81221   0.96666   0.43085   0.08381
C          C       0.88896   0.07808   0.41935  -0.13886
C          C       0.90946   0.17557   0.45333  -0.06544
C          C       0.85621   0.15993   0.50008  -0.15467
C          C       0.77566   0.05283   0.50875   0.06398
C          C       0.20168   0.04264   0.82031   0.01839
C          C       0.15282   0.14362   0.84963  -0.01835
C          C       0.08198   0.24475   0.82653  -0.08008
C          C       0.05573   0.23451   0.77730  -0.13421
C          C       0.10789   0.13029   0.75078   0.03267
C          C       0.19435   0.14938   0.90067   0.20042
C          C       0.18779   0.03334   0.93085   0.08381
C          C       0.11104   0.92192   0.91935  -0.13891
C          C       0.09054   0.82443   0.95333  -0.06539
C          C       0.14379   0.84007   0.00008  -0.15462
C          C       0.22434   0.94717   0.00875   0.06399
N          N       0.96276   0.81607   0.72804  -0.18402
N          N       0.96095   0.74829   0.52502  -0.23370
N          N       0.03724   0.18393   0.22804  -0.18443
N          N       0.03904   0.25171   0.02502  -0.23371
N          N       0.68393   0.46276   0.47804  -0.18428
N          N       0.75171   0.46096   0.27502  -0.23363
N          N       0.31607   0.53723   0.97804  -0.18408
N          N       0.24829   0.53905   0.77502  -0.23361
N          N       0.53723   0.31607   0.02196  -0.18421
N          N       0.53904   0.24829   0.22498  -0.23359
N          N       0.46277   0.68393   0.52196  -0.18425
N          N       0.46096   0.75171   0.72498  -0.23365
N          N       0.81606   0.96276   0.27196  -0.18452
N          N       0.74829   0.96096   0.47498  -0.23357
N          N       0.18393   0.03724   0.77196  -0.18419
N          N       0.25171   0.03904   0.97498  -0.23363
O          O       0.74138   0.76087   0.58320  -0.47486
O          O       0.25862   0.23912   0.08320  -0.47496
O          O       0.73912   0.24138   0.33320  -0.47497
O          O       0.26088   0.75861   0.83320  -0.47500
O          O       0.75862   0.26088   0.16680  -0.47506
O          O       0.24138   0.73912   0.66680  -0.47503
O          O       0.76087   0.74138   0.41680  -0.47486
O          O       0.23913   0.25862   0.91680  -0.47489

