data_crystal

_audit_creation_method 'AiiDA-DDEC plugin'

_cell_length_a         4.68946
_cell_length_b        24.55056
_cell_length_c        29.35552

_cell_angle_alpha     90.00364
_cell_angle_beta     89.99636
_cell_angle_gamma     90.00467

_symmetry_space_group_name_Hall 'P 1'
_symmetry_space_group_name_H-M  'P 1'

loop_
_symmetry_equiv_pos_as_xyz
 'x,y,z'

loop_
_atom_site_label
_atom_site_type_symbol
_atom_site_fract_x
_atom_site_fract_y
_atom_site_fract_z
_atom_site_charge
Zn         Zn      0.27578   0.47018   0.45108   1.02768
Zn         Zn      0.27582   0.02983   0.04892   1.02744
Zn         Zn      0.72416   0.52983   0.95106   1.02781
Zn         Zn      0.72438   0.97017   0.54892   1.02736
Zn         Zn      0.72421   0.52985   0.54898   1.02791
Zn         Zn      0.72422   0.97016   0.95102   1.02809
Zn         Zn      0.27582   0.47017   0.04897   1.02826
Zn         Zn      0.27577   0.02984   0.45102   1.02821
Zn         Zn      0.10694   0.42453   0.25014   1.08238
Zn         Zn      0.10722   0.07551   0.24987   1.08252
Zn         Zn      0.89298   0.57548   0.75013   1.08228
Zn         Zn      0.89299   0.92452   0.74983   1.08251
P          P       0.21008   0.58223   0.50744   1.28954
P          P       0.10465   0.41482   0.36078   1.36047
P          P       0.21004   0.91779   0.99256   1.28953
P          P       0.10459   0.08518   0.13922   1.36043
P          P       0.78984   0.41783   0.00746   1.28951
P          P       0.89550   0.58515   0.86078   1.35978
P          P       0.78982   0.08219   0.49254   1.28902
P          P       0.89562   0.91489   0.63919   1.35983
P          P       0.78992   0.41777   0.49260   1.28951
P          P       0.89531   0.58513   0.63940   1.36082
P          P       0.78996   0.08224   0.00738   1.28967
P          P       0.89531   0.91489   0.86058   1.36034
P          P       0.21008   0.58223   0.99262   1.28981
P          P       0.10475   0.41491   0.13942   1.36109
P          P       0.21024   0.91777   0.50734   1.29019
P          P       0.10465   0.08509   0.36060   1.36099
H          H       0.71888   0.42253   0.39946   0.39431
H          H       0.56852   0.65590   0.50345   0.12952
H          H       0.34485   0.65014   0.45561   0.15616
H          H       0.83267   0.30541   0.37597   0.05920
H          H       0.05210   0.30180   0.32700   0.07779
H          H       0.46549   0.34223   0.37171   0.13372
H          H       0.23282   0.35226   0.41871   0.15265
H          H       0.93600   0.69362   0.49927   0.06731
H          H       0.15831   0.69679   0.54802   0.08229
H          H       0.71887   0.07747   0.10053   0.39423
H          H       0.56850   0.84413   0.99654   0.12939
H          H       0.34487   0.84989   0.04439   0.15628
H          H       0.83268   0.19460   0.12403   0.05909
H          H       0.05204   0.19820   0.17300   0.07801
H          H       0.46548   0.15778   0.12829   0.13379
H          H       0.23286   0.14776   0.08129   0.15256
H          H       0.93597   0.80641   0.00073   0.06751
H          H       0.15832   0.80323   0.95199   0.08192
H          H       0.28112   0.57743   0.89950   0.39399
H          H       0.43135   0.34416   0.00361   0.12923
H          H       0.65457   0.34988   0.95571   0.15591
H          H       0.16732   0.69459   0.87599   0.05936
H          H       0.94791   0.69817   0.82702   0.07778
H          H       0.53454   0.65773   0.87173   0.13332
H          H       0.76714   0.64774   0.91872   0.15301
H          H       0.06392   0.30650  -0.00067   0.06750
H          H       0.84159   0.30324   0.04808   0.08230
H          H       0.28115   0.92267   0.60041   0.39417
H          H       0.43131   0.15585   0.49643   0.12925
H          H       0.65454   0.15014   0.54433   0.15653
H          H       0.16738   0.80544   0.62402   0.05907
H          H       0.94787   0.80186   0.67298   0.07814
H          H       0.53461   0.84230   0.62827   0.13326
H          H       0.76723   0.85225   0.58126   0.15257
H          H       0.06389   0.19353   0.50068   0.06747
H          H       0.84158   0.19674   0.45194   0.08199
H          H       0.28093   0.57744   0.60065   0.39434
H          H       0.43149   0.34409   0.49656   0.12933
H          H       0.65505   0.34981   0.54442   0.15643
H          H       0.16727   0.69454   0.62411   0.05926
H          H       0.94791   0.69827   0.67308   0.07839
H          H       0.53444   0.65774   0.62846   0.13356
H          H       0.76690   0.64765   0.58147   0.15258
H          H       0.06399   0.30636   0.50074   0.06740
H          H       0.84163   0.30322   0.45199   0.08226
H          H       0.28089   0.92257   0.89934   0.39445
H          H       0.43156   0.15591   0.00339   0.12937
H          H       0.65522   0.15020   0.95555   0.15596
H          H       0.16723   0.80548   0.87590   0.05944
H          H       0.94795   0.80173   0.82692   0.07799
H          H       0.53442   0.84227   0.87154   0.13334
H          H       0.76688   0.85238   0.91852   0.15296
H          H       0.06404   0.19367  -0.00076   0.06744
H          H       0.84166   0.19678   0.04798   0.08232
H          H       0.71912   0.42263   0.10069   0.39471
H          H       0.56852   0.65589   0.99661   0.12940
H          H       0.34494   0.65020   0.04446   0.15637
H          H       0.83272   0.30550   0.12412   0.05935
H          H       0.05207   0.30177   0.17310   0.07821
H          H       0.46552   0.34232   0.12848   0.13324
H          H       0.23303   0.35240   0.08149   0.15284
H          H       0.93600   0.69360   0.00077   0.06754
H          H       0.15842   0.69673   0.95203   0.08207
H          H       0.71902   0.07736   0.39935   0.39451
H          H       0.56867   0.84415   0.50340   0.12948
H          H       0.34542   0.84974   0.45551   0.15636
H          H       0.83265   0.19450   0.37589   0.05928
H          H       0.05202   0.19823   0.32691   0.07805
H          H       0.46544   0.15769   0.37154   0.13288
H          H       0.23295   0.14764   0.41853   0.15296
H          H       0.93611   0.80644   0.49925   0.06746
H          H       0.15854   0.80333   0.54797   0.08266
H          H       0.30323   0.75001   0.45648   0.09383
H          H       0.52795   0.75002   0.50421   0.05913
H          H       0.30316   0.75004   0.04354   0.09386
H          H       0.52793   0.75002   0.99580   0.05896
H          H       0.69689   0.25012   0.95650   0.09342
H          H       0.47205   0.25003   0.00422   0.05905
H          H       0.69684   0.24992   0.54351   0.09381
H          H       0.47204   0.24996   0.49578   0.05884
H          H       0.19981   0.24991   0.41904   0.09622
H          H       0.42660   0.24997   0.37158   0.06727
H          H       0.19988   0.25009   0.08096   0.09620
H          H       0.42664   0.25003   0.12842   0.06724
H          H       0.80011   0.75008   0.91906   0.09633
H          H       0.57334   0.75000   0.87160   0.06731
H          H       0.80016   0.74993   0.58095   0.09591
H          H       0.57339   0.75001   0.62842   0.06738
C          C       0.34149   0.65022   0.49310  -0.42890
C          C       0.06105   0.30211   0.36448  -0.09584
C          C       0.23885   0.34959   0.38128  -0.46043
C          C       0.16457   0.69727   0.51064  -0.09900
C          C       0.34149   0.84981   0.00690  -0.42854
C          C       0.06105   0.19790   0.13553  -0.09594
C          C       0.23885   0.15042   0.11872  -0.46061
C          C       0.16455   0.80275   0.98937  -0.09956
C          C       0.65827   0.34984   0.99319  -0.42857
C          C       0.93894   0.69787   0.86449  -0.09664
C          C       0.76119   0.65039   0.88130  -0.46005
C          C       0.83535   0.30280   0.01070  -0.09969
C          C       0.65823   0.15017   0.50685  -0.42864
C          C       0.93897   0.80215   0.63551  -0.09625
C          C       0.76129   0.84963   0.61869  -0.46016
C          C       0.83532   0.19721   0.48932  -0.09970
C          C       0.65849   0.34976   0.50693  -0.42862
C          C       0.93891   0.69788   0.63561  -0.09659
C          C       0.76106   0.65037   0.61889  -0.46017
C          C       0.83540   0.30271   0.48937  -0.09953
C          C       0.65858   0.15024   0.99304  -0.42828
C          C       0.93889   0.80214   0.86439  -0.09675
C          C       0.76105   0.84965   0.88110  -0.45998
C          C       0.83545   0.19730   0.01060  -0.09949
C          C       0.34151   0.65022   0.00697  -0.42871
C          C       0.06108   0.30217   0.13563  -0.09688
C          C       0.23889   0.34968   0.11891  -0.45994
C          C       0.16460   0.69726   0.98941  -0.09933
C          C       0.34172   0.84978   0.49300  -0.42878
C          C       0.06101   0.19784   0.36438  -0.09640
C          C       0.23879   0.15033   0.38111  -0.45999
C          C       0.16471   0.80278   0.51060  -0.09987
C          C       0.29808   0.75001   0.49398  -0.13972
C          C       0.29804   0.75002   0.00603  -0.13916
C          C       0.70195   0.25006   0.99400  -0.13879
C          C       0.70193   0.24995   0.50600  -0.13884
C          C       0.19644   0.24995   0.38160  -0.13885
C          C       0.19649   0.25006   0.11841  -0.13867
C          C       0.80348   0.75002   0.88161  -0.13862
C          C       0.80353   0.74999   0.61840  -0.13876
O          O       0.88521   0.59020   0.51346  -0.73575
O          O       0.29938   0.54526   0.46811  -0.74528
O          O       0.32576   0.55819   0.55408  -0.77509
O          O       0.21440   0.46556   0.38395  -0.70971
O          O       0.77191   0.40816   0.36617  -0.66404
O          O       0.17339   0.41477   0.30853  -0.77694
O          O       0.88519   0.90980   0.98655  -0.73579
O          O       0.29933   0.95477   0.03189  -0.74474
O          O       0.32575   0.94183   0.94592  -0.77538
O          O       0.21441   0.03443   0.11607  -0.70977
O          O       0.77187   0.09186   0.13382  -0.66380
O          O       0.17341   0.08522   0.19146  -0.77701
O          O       0.11471   0.40984   0.01346  -0.73597
O          O       0.70024   0.45478   0.96814  -0.74507
O          O       0.67431   0.44183   0.05411  -0.77517
O          O       0.78554   0.53441   0.88392  -0.70996
O          O       0.22820   0.59181   0.86619  -0.66344
O          O       0.82669   0.58520   0.80854  -0.77666
O          O       0.11469   0.09017   0.48653  -0.73583
O          O       0.70034   0.04522   0.53186  -0.74471
O          O       0.67425   0.05818   0.44590  -0.77498
O          O       0.78546   0.96563   0.61607  -0.70952
O          O       0.22830   0.90832   0.63375  -0.66368
O          O       0.82678   0.91480   0.69143  -0.77656
O          O       0.11479   0.40978   0.48656  -0.73595
O          O       0.70071   0.45475   0.53192  -0.74491
O          O       0.67420   0.44181   0.44597  -0.77511
O          O       0.78557   0.53445   0.61614  -0.71013
O          O       0.22805   0.59181   0.63392  -0.66366
O          O       0.82700   0.58516   0.69168  -0.77719
O          O       0.11483   0.09024   0.01345  -0.73595
O          O       0.70090   0.04527   0.96807  -0.74509
O          O       0.67417   0.05818   0.05402  -0.77490
O          O       0.78559   0.96555   0.88385  -0.70969
O          O       0.22806   0.90820   0.86607  -0.66365
O          O       0.82708   0.91485   0.80829  -0.77739
O          O       0.88524   0.59021   0.98654  -0.73590
O          O       0.29916   0.54527   0.03194  -0.74491
O          O       0.32581   0.55818   0.94597  -0.77508
O          O       0.21447   0.46554   0.11613  -0.71025
O          O       0.77196   0.40831   0.13397  -0.66400
O          O       0.17309   0.41481   0.19170  -0.77728
O          O       0.88543   0.90979   0.51346  -0.73639
O          O       0.29926   0.95472   0.46801  -0.74507
O          O       0.32593   0.94185   0.55398  -0.77443
O          O       0.21445   0.03444   0.38388  -0.71055
O          O       0.77190   0.09167   0.36605  -0.66376
O          O       0.17322   0.08517   0.30833  -0.77718

