data_crystal

_audit_creation_method 'AiiDA-DDEC plugin'

_cell_length_a        13.44671
_cell_length_b        13.44886
_cell_length_c        17.47657

_cell_angle_alpha     87.22399
_cell_angle_beta     87.21331
_cell_angle_gamma     90.25655

_symmetry_space_group_name_Hall 'P 1'
_symmetry_space_group_name_H-M  'P 1'

loop_
_symmetry_equiv_pos_as_xyz
 'x,y,z'

loop_
_atom_site_label
_atom_site_type_symbol
_atom_site_fract_x
_atom_site_fract_y
_atom_site_fract_z
_atom_site_charge
Zn         Zn      0.00273   0.52214   0.74499   0.98071
Zn         Zn      0.75318   0.44829   0.82314   1.07705
Zn         Zn      0.47783   0.99726   0.75503   0.98088
Zn         Zn      0.55169   0.24680   0.67688   1.07697
Zn         Zn      0.99726   0.47786   0.25501   0.98075
Zn         Zn      0.24681   0.55171   0.17687   1.07700
Zn         Zn      0.52216   0.00274   0.24497   0.98094
Zn         Zn      0.44831   0.75320   0.32312   1.07691
Zn         Zn      0.99199   0.00797   0.75007   0.97433
Zn         Zn      0.46223   0.53775   0.75004   0.98687
Zn         Zn      0.00801   0.99203   0.24990   0.97421
Zn         Zn      0.53777   0.46225   0.24999   0.98682
H          H       0.96709   0.43058   0.02177   0.13173
H          H       0.02745   0.07368   0.97271   0.13661
H          H       0.56990   0.45268   0.48531   0.12882
H          H       0.92171   0.52911   0.53736   0.13456
H          H       0.56942   0.03293   0.47826   0.13193
H          H       0.92637   0.97253   0.52726   0.13667
H          H       0.54729   0.43006   0.01472   0.12872
H          H       0.47093   0.07830   0.96263   0.13446
H          H       0.03290   0.56942   0.97823   0.13167
H          H       0.97256   0.92632   0.02729   0.13665
H          H       0.43009   0.54732   0.51470   0.12880
H          H       0.07829   0.47089   0.46265   0.13463
H          H       0.43058   0.96706   0.52174   0.13181
H          H       0.07363   0.02747   0.47274   0.13670
H          H       0.45271   0.56994   0.98529   0.12868
H          H       0.52906   0.92170   0.03738   0.13446
C          C       0.98833   0.21652   0.92351   0.00840
C          C       0.97037   0.31823   0.93758   0.00273
C          C       0.98224   0.35328   0.01030  -0.12134
C          C       0.01032   0.28858   0.07035   0.02202
C          C       0.02657   0.18605   0.05705   0.01585
C          C       0.01520   0.15165   0.98367  -0.11138
C          C       0.96426   0.17489   0.84833   0.56697
C          C       0.93952   0.38860   0.87456   0.59879
C          C       0.03013   0.33202   0.14532   0.55100
C          C       0.04672   0.11272   0.12115   0.53225
C          C       0.77627   0.49222   0.58711  -0.02988
C          C       0.67602   0.47028   0.57250  -0.02215
C          C       0.64659   0.47011   0.49700  -0.12721
C          C       0.71474   0.49342   0.43550   0.01390
C          C       0.81514   0.51435   0.45005  -0.00749
C          C       0.84455   0.51416   0.52585  -0.08008
C          C       0.81078   0.48817   0.66708   0.62571
C          C       0.59711   0.45834   0.63591   0.61890
C          C       0.67661   0.50404   0.35642   0.54912
C          C       0.89241   0.52866   0.38590   0.55439
C          C       0.78351   0.01166   0.57649   0.00882
C          C       0.68179   0.02962   0.56243   0.00264
C          C       0.64673   0.01777   0.48971  -0.12166
C          C       0.71143   0.98969   0.42964   0.02253
C          C       0.81398   0.97345   0.44293   0.01507
C          C       0.84839   0.98481   0.51632  -0.11143
C          C       0.82513   0.03572   0.65168   0.56670
C          C       0.61139   0.06048   0.62545   0.59876
C          C       0.66799   0.96988   0.35467   0.55130
C          C       0.88731   0.95328   0.37881   0.53274
C          C       0.50776   0.22372   0.91289  -0.02976
C          C       0.52966   0.32397   0.92750  -0.02227
C          C       0.52987   0.35339   0.00301  -0.12718
C          C       0.50659   0.28524   0.06451   0.01368
C          C       0.48567   0.18485   0.04995  -0.00717
C          C       0.48586   0.15544   0.97416  -0.07990
C          C       0.51182   0.18921   0.83293   0.62566
C          C       0.54156   0.40287   0.86410   0.61967
C          C       0.49597   0.32338   0.14359   0.54922
C          C       0.47135   0.10759   0.11409   0.55421
C          C       0.01168   0.78348   0.07648   0.00812
C          C       0.02962   0.68177   0.06242   0.00282
C          C       0.01776   0.64673   0.98970  -0.12134
C          C       0.98968   0.71142   0.92965   0.02192
C          C       0.97343   0.81395   0.94295   0.01556
C          C       0.98481   0.84835   0.01633  -0.11119
C          C       0.03573   0.82510   0.15166   0.56725
C          C       0.06047   0.61140   0.12544   0.59873
C          C       0.96987   0.66798   0.85468   0.55121
C          C       0.95328   0.88728   0.87884   0.53255
C          C       0.22372   0.50778   0.41289  -0.02966
C          C       0.32397   0.52972   0.42750  -0.02224
C          C       0.35341   0.52989   0.50301  -0.12709
C          C       0.28526   0.50659   0.56451   0.01359
C          C       0.18486   0.48565   0.54996  -0.00733
C          C       0.15544   0.48584   0.47416  -0.08026
C          C       0.18921   0.51183   0.33293   0.62580
C          C       0.40288   0.54165   0.36409   0.61885
C          C       0.32338   0.49596   0.64359   0.54966
C          C       0.10759   0.47134   0.61410   0.55414
C          C       0.21648   0.98835   0.42350   0.00854
C          C       0.31821   0.97038   0.43756   0.00265
C          C       0.35326   0.98223   0.51029  -0.12154
C          C       0.28857   0.01031   0.57035   0.02246
C          C       0.18602   0.02656   0.55706   0.01523
C          C       0.15161   0.01520   0.48368  -0.11134
C          C       0.17487   0.96428   0.34831   0.56677
C          C       0.38861   0.93952   0.37455   0.59895
C          C       0.33201   0.03012   0.64533   0.55128
C          C       0.11269   0.04673   0.62118   0.53243
C          C       0.49224   0.77628   0.08711  -0.02974
C          C       0.47033   0.67603   0.07250  -0.02210
C          C       0.47013   0.64661   0.99700  -0.12726
C          C       0.49341   0.71477   0.93550   0.01381
C          C       0.51433   0.81515   0.95005  -0.00738
C          C       0.51414   0.84456   0.02585  -0.07984
C          C       0.48818   0.81079   0.16708   0.62550
C          C       0.45843   0.59713   0.13591   0.61943
C          C       0.50403   0.67662   0.85643   0.54942
C          C       0.52864   0.89241   0.88591   0.55445
O          O       0.02464   0.11056   0.82135  -0.51301
O          O       0.88380   0.20374   0.82191  -0.38409
O          O       0.99413   0.39570   0.81415  -0.48189
O          O       0.85996   0.43954   0.89017  -0.57725
O          O       0.96513   0.39403   0.17074  -0.51215
O          O       0.11088   0.31087   0.17416  -0.40467
O          O       0.98650   0.11457   0.18063  -0.45264
O          O       0.11486   0.05037   0.11363  -0.40251
O          O       0.88449   0.54101   0.68169  -0.53868
O          O       0.76021   0.42963   0.71552  -0.56055
O          O       0.58467   0.53111   0.67800  -0.49474
O          O       0.53998   0.38075   0.63937  -0.59146
O          O       0.69008   0.58474   0.31877  -0.40130
O          O       0.62515   0.43039   0.33444  -0.50005
O          O       0.96055   0.59096   0.39042  -0.41234
O          O       0.88501   0.47001   0.32976  -0.50353
O          O       0.88944   0.97536   0.67869  -0.51284
O          O       0.79627   0.11620   0.67808  -0.38393
O          O       0.60427   0.00588   0.68585  -0.48164
O          O       0.56045   0.14003   0.60984  -0.57741
O          O       0.60600   0.03488   0.32925  -0.51225
O          O       0.68913   0.88912   0.32584  -0.40495
O          O       0.88546   0.01341   0.31931  -0.45286
O          O       0.94966   0.88514   0.38636  -0.40233
O          O       0.45899   0.11551   0.81832  -0.53864
O          O       0.57036   0.23979   0.78449  -0.56067
O          O       0.46876   0.41532   0.82204  -0.49483
O          O       0.61917   0.46001   0.86061  -0.59213
O          O       0.41525   0.30991   0.18124  -0.40121
O          O       0.56962   0.37485   0.16555  -0.50017
O          O       0.40905   0.03945   0.10957  -0.41215
O          O       0.53000   0.11499   0.17024  -0.50356
O          O       0.97535   0.88943   0.17864  -0.51283
O          O       0.11620   0.79626   0.17809  -0.38426
O          O       0.00587   0.60430   0.18585  -0.48162
O          O       0.14004   0.56046   0.10983  -0.57742
O          O       0.03487   0.60597   0.82926  -0.51233
O          O       0.88912   0.68913   0.82584  -0.40464
O          O       0.01348   0.88543   0.81936  -0.45291
O          O       0.88514   0.94964   0.88637  -0.40240
O          O       0.11551   0.45899   0.31832  -0.53873
O          O       0.23979   0.57037   0.28449  -0.56069
O          O       0.41532   0.46889   0.32201  -0.49480
O          O       0.46002   0.61924   0.36063  -0.59143
O          O       0.30991   0.41526   0.68123  -0.40137
O          O       0.37484   0.56961   0.66558  -0.50026
O          O       0.03945   0.40904   0.60958  -0.41217
O          O       0.11499   0.52999   0.67024  -0.50335
O          O       0.11056   0.02463   0.32130  -0.51283
O          O       0.20372   0.88380   0.32192  -0.38399
O          O       0.39573   0.99412   0.31415  -0.48181
O          O       0.43954   0.85997   0.39017  -0.57743
O          O       0.39400   0.96512   0.67075  -0.51230
O          O       0.31087   0.11087   0.67416  -0.40480
O          O       0.11454   0.98657   0.68067  -0.45275
O          O       0.05034   0.11486   0.61364  -0.40218
O          O       0.54101   0.88449   0.18168  -0.53866
O          O       0.42964   0.76021   0.21552  -0.56045
O          O       0.53122   0.58468   0.17797  -0.49476
O          O       0.38082   0.53999   0.13939  -0.59196
O          O       0.58474   0.69009   0.81876  -0.40160
O          O       0.43037   0.62515   0.83448  -0.50015
O          O       0.59095   0.96055   0.89043  -0.41233
O          O       0.47000   0.88501   0.82976  -0.50363

