data_crystal

_audit_creation_method 'AiiDA-DDEC plugin'

_cell_length_a        11.61743
_cell_length_b        11.62011
_cell_length_c        16.86309

_cell_angle_alpha     76.04780
_cell_angle_beta     76.10513
_cell_angle_gamma     84.61404

_symmetry_space_group_name_Hall 'P 1'
_symmetry_space_group_name_H-M  'P 1'

loop_
_symmetry_equiv_pos_as_xyz
 'x,y,z'

loop_
_atom_site_label
_atom_site_type_symbol
_atom_site_fract_x
_atom_site_fract_y
_atom_site_fract_z
_atom_site_charge
Ni         Ni      0.56747   0.92868   0.85027   0.78095
Ni         Ni      0.07128   0.43246   0.64969   0.78122
Ni         Ni      0.43254   0.07131   0.14973   0.78100
Ni         Ni      0.92873   0.56754   0.35031   0.78154
H          H       0.77802   0.30725   0.59072   0.12850
H          H       0.92879   0.15272   0.38084   0.11946
H          H       0.73616   0.93901   0.61527   0.11847
H          H       0.75676   0.80243   0.56629   0.11708
H          H       0.80822   0.62486   0.50695   0.10848
H          H       0.02938   0.81259   0.29374   0.09708
H          H       0.99167  -0.00142   0.34477   0.12174
H          H       0.76768   0.70834   0.84253   0.12097
H          H       0.77378   0.57248   0.72711   0.14448
H          H       0.45324   0.78378   0.75321   0.11782
H          H       0.47850   0.77876   0.60724   0.12097
H          H       0.42655   0.69782   0.50000   0.10844
H          H       0.60482   0.36570   0.58899   0.10140
H          H       0.66157   0.44767   0.69246   0.14184
H          H       0.69237   0.22187   0.90935   0.12824
H          H       0.84737   0.07128   0.11921   0.11939
H          H       0.06076   0.26382   0.88465   0.11835
H          H       0.19743   0.24322   0.93377   0.11725
H          H       0.37517   0.19179   0.99314   0.10861
H          H       0.18766   0.97046   0.20637   0.09655
H          H       0.00153   0.00817   0.15535   0.12185
H          H       0.29165   0.23215   0.65760   0.12060
H          H       0.42773   0.22629   0.77293   0.14421
H          H       0.21591   0.54650   0.74673   0.11717
H          H       0.22117   0.52134   0.89260   0.12090
H          H       0.30211   0.57335  -0.00017   0.10827
H          H       0.63433   0.39522   0.91117   0.10129
H          H       0.55246   0.33852   0.80766   0.14173
H          H       0.22199   0.69274   0.40928   0.12868
H          H       0.07122   0.84728   0.61916   0.11929
H          H       0.26385   0.06099   0.38473   0.11847
H          H       0.24325   0.19757   0.43371   0.11721
H          H       0.19179   0.37514   0.49305   0.10844
H          H       0.97063   0.18741   0.70626   0.09689
H          H       0.00834   0.00141   0.65523   0.12171
H          H       0.23233   0.29165   0.15747   0.12078
H          H       0.22623   0.42751   0.27289   0.14424
H          H       0.54677   0.21621   0.24679   0.11820
H          H       0.52151   0.22123   0.39276   0.12119
H          H       0.57346   0.30218   0.49999   0.10856
H          H       0.39519   0.63429   0.41101   0.10117
H          H       0.33844   0.55233   0.30754   0.14164
H          H       0.30764   0.77812   0.09064   0.12835
H          H       0.15264   0.92872   0.88079   0.11947
H          H       0.93924   0.73617   0.11535   0.11817
H          H       0.80258   0.75678   0.06623   0.11732
H          H       0.62484   0.80821   0.00686   0.10837
H          H       0.81235   0.02953   0.79363   0.09638
H          H      -0.00152   0.99183   0.84465   0.12194
H          H       0.70836   0.76784   0.34240   0.12054
H          H       0.57228   0.77370   0.22707   0.14401
H          H       0.78410   0.45349   0.25327   0.11754
H          H       0.77884   0.47865   0.10740   0.12116
H          H       0.69790   0.42665   0.00017   0.10837
H          H       0.36568   0.60477   0.08883   0.10111
H          H       0.44755   0.66147   0.19234   0.14161
C          C       0.66653   0.11000   0.69717   0.55130
C          C       0.74493   0.12179   0.61002  -0.03212
C          C       0.79184   0.23017   0.56331  -0.10515
C          C       0.85655   0.23964   0.48049  -0.02480
C          C       0.87943   0.13993   0.44566  -0.13391
C          C       0.83941   0.02837   0.49355   0.04258
C          C       0.77092   0.02206   0.57528  -0.12750
C          C       0.89585   0.35802   0.42854   0.54129
C          C       0.86749   0.91998   0.46027   0.11381
C          C       0.81790   0.81072   0.50553  -0.17738
C          C       0.84571   0.71020   0.47318   0.09261
C          C       0.96950   0.81547   0.35371   0.09045
C          C       0.94638   0.91921   0.38268  -0.18196
C          C       0.70325   0.70429   0.80652  -0.03292
C          C       0.70866   0.63779   0.74867  -0.09020
C          C       0.53941   0.74638   0.76174   0.08924
C          C       0.57281   0.61872   0.65764   0.14707
C          C       0.50626   0.68800   0.60300  -0.18517
C          C       0.47775   0.64145   0.54159  -0.11421
C          C       0.51405   0.52497   0.53293   0.06132
C          C       0.57876   0.45747   0.58988  -0.10164
C          C       0.60991   0.50297   0.65055  -0.16133
C          C       0.88974   0.33342   0.80274   0.55212
C          C       0.87796   0.25503   0.88993  -0.03173
C          C       0.76962   0.20811   0.93666  -0.10490
C          C       0.76033   0.14343   0.01951  -0.02497
C          C       0.86009   0.12056   0.05436  -0.13439
C          C       0.97161   0.16054   0.00644   0.04319
C          C       0.97777   0.22904   0.92468  -0.12761
C          C       0.64200   0.10434   0.07154   0.54054
C          C       0.08002   0.13242   0.03978   0.11409
C          C       0.18924   0.18205   0.99453  -0.17797
C          C       0.28982   0.15428   0.02689   0.09295
C          C       0.18466   0.03040   0.14639   0.09123
C          C       0.08086   0.05350   0.11741  -0.18269
C          C       0.29564   0.29657   0.69358  -0.03281
C          C       0.36229   0.29131   0.75137  -0.09040
C          C       0.25341   0.46036   0.73829   0.09028
C          C       0.38130   0.42715   0.84233   0.14674
C          C       0.31196   0.49365   0.89690  -0.18548
C          C       0.35852   0.52219   0.95831  -0.11368
C          C       0.47503   0.48595   0.96707   0.06136
C          C       0.54256   0.42127   0.91020  -0.10138
C          C       0.49707   0.39012   0.84950  -0.16098
C          C       0.33348   0.89000   0.30282   0.55122
C          C       0.25508   0.87820   0.38998  -0.03186
C          C       0.20817   0.76982   0.43669  -0.10516
C          C       0.14346   0.76035   0.51951  -0.02471
C          C       0.12058   0.86006   0.55434  -0.13389
C          C       0.16060   0.97163   0.50645   0.04264
C          C       0.22909   0.97793   0.42472  -0.12776
C          C       0.10416   0.64197   0.57146   0.54112
C          C       0.13252   0.08002   0.53973   0.11383
C          C       0.18211   0.18928   0.49447  -0.17727
C          C       0.15430   0.28980   0.52682   0.09276
C          C       0.03051   0.18453   0.64628   0.09038
C          C       0.05363   0.08079   0.61732  -0.18199
C          C       0.29676   0.29570   0.19348  -0.03319
C          C       0.29135   0.36221   0.25133  -0.09038
C          C       0.46060   0.25361   0.23826   0.08926
C          C       0.42720   0.38128   0.34236   0.14700
C          C       0.49375   0.31199   0.39700  -0.18510
C          C       0.52226   0.35855   0.45841  -0.11423
C          C       0.48596   0.47503   0.46707   0.06158
C          C       0.42125   0.54252   0.41012  -0.10160
C          C       0.39010   0.49702   0.34944  -0.16142
C          C       0.11027   0.66658   0.19726   0.55225
C          C       0.12205   0.74496   0.11007  -0.03182
C          C       0.23039   0.79188   0.06334  -0.10465
C          C       0.23968   0.85657   0.98049  -0.02488
C          C       0.13992   0.87943   0.94564  -0.13456
C          C       0.02840   0.83945   0.99356   0.04322
C          C       0.02224   0.77096   0.07532  -0.12766
C          C       0.35801   0.89566   0.92846   0.54007
C          C       0.91999   0.86757   0.96021   0.11390
C          C       0.81077   0.81794   0.00547  -0.17777
C          C       0.71018   0.84571   0.97310   0.09292
C          C       0.81535   0.96960   0.85361   0.09143
C          C       0.91915   0.94649   0.88259  -0.18251
C          C       0.70437   0.70342   0.30642  -0.03294
C          C       0.63772   0.70869   0.24863  -0.09043
C          C       0.74660   0.53963   0.26171   0.09031
C          C       0.61871   0.57284   0.15767   0.14682
C          C       0.68805   0.50634   0.10310  -0.18530
C          C       0.64148   0.47781   0.04169  -0.11360
C          C       0.52498   0.51405   0.03293   0.06144
C          C       0.45745   0.57872   0.08980  -0.10159
C          C       0.50294   0.60987   0.15050  -0.16124
N          N       0.91952   0.71205   0.39754  -0.23698
N          N       0.59760   0.77129   0.81427  -0.27399
N          N       0.60433   0.66566   0.71997   0.01884
N          N       0.28803   0.08043   0.10256  -0.23687
N          N       0.22847   0.40212   0.68583  -0.27407
N          N       0.33435   0.39560   0.78002   0.01968
N          N       0.08049   0.28795   0.60246  -0.23710
N          N       0.40241   0.22870   0.18573  -0.27365
N          N       0.39568   0.33434   0.28003   0.01892
N          N       0.71198   0.91957   0.89744  -0.23713
N          N       0.77154   0.59787   0.31417  -0.27405
N          N       0.66566   0.60440   0.21998   0.01949
O          O       0.64537   0.00015   0.73404  -0.59196
O          O       0.62979   0.19947   0.72593  -0.54135
O          O       0.88039   0.44616   0.46426  -0.53962
O          O       0.93951   0.37278   0.34985  -0.54448
O          O      -0.00038   0.35455   0.76594  -0.59231
O          O       0.80026   0.37018   0.77394  -0.54207
O          O       0.55387   0.11943   0.03576  -0.53921
O          O       0.62724   0.06137   0.15033  -0.54405
O          O       0.35464  -0.00016   0.26596  -0.59212
O          O       0.37022   0.80052   0.27407  -0.54101
O          O       0.11962   0.55384   0.53574  -0.53936
O          O       0.06050   0.62721   0.65015  -0.54465
O          O       0.00039   0.64545   0.23406  -0.59259
O          O       0.19975   0.62982   0.22606  -0.54178
O          O       0.44614   0.88056   0.96423  -0.53883
O          O       0.37277   0.93863   0.84967  -0.54394

