data_crystal

_audit_creation_method 'AiiDA-DDEC plugin'

_cell_length_a        10.24966
_cell_length_b        13.12555
_cell_length_c        17.49714

_cell_angle_alpha     79.66541
_cell_angle_beta     85.73245
_cell_angle_gamma     77.85190

_symmetry_space_group_name_Hall 'P 1'
_symmetry_space_group_name_H-M  'P 1'

loop_
_symmetry_equiv_pos_as_xyz
 'x,y,z'

loop_
_atom_site_label
_atom_site_type_symbol
_atom_site_fract_x
_atom_site_fract_y
_atom_site_fract_z
_atom_site_charge
Cd         Cd      0.95483   0.90376   0.79735   0.85494
Cd         Cd      0.04517   0.09625   0.20265   0.85501
Cd         Cd      0.50000   0.50000   0.50000   0.87338
H          H       0.59696   0.19431   0.69533   0.11790
H          H       0.46688   0.90742   0.79935   0.11761
H          H       0.17894   0.18293   0.70715   0.12115
H          H       0.22323   0.73663   0.72795   0.12552
H          H       0.19403   0.56258   0.66354   0.14151
H          H       0.81534   0.72089   0.73914   0.11489
H          H       0.82492   0.58411   0.64411   0.09461
H          H       0.98393   0.51715   0.61584   0.10505
H          H       0.07653   0.46049   0.79436   0.11711
H          H       0.05963   0.30135   0.89014   0.10605
H          H       0.73100   0.25531   0.76985   0.11251
H          H       0.74325   0.41870   0.67555   0.11047
H          H       0.90319   0.09988   0.85616   0.10342
H          H       0.78354   0.16845   0.91664   0.11217
H          H       0.16549   0.09522   0.89192   0.13337
H          H       0.26086   0.06935   0.04142   0.12881
H          H       0.84180   0.16495   0.05217   0.12296
H          H       0.40305   0.80570   0.30467   0.11755
H          H       0.53313   0.09258   0.20065   0.11782
H          H       0.82107   0.81707   0.29285   0.12115
H          H       0.77677   0.26338   0.27205   0.12534
H          H       0.80597   0.43742   0.33646   0.14165
H          H       0.18467   0.27911   0.26085   0.11503
H          H       0.17509   0.41589   0.35588   0.09465
H          H       0.01607   0.48286   0.38415   0.10493
H          H       0.92347   0.53952   0.20564   0.11688
H          H       0.94037   0.69866   0.10986   0.10598
H          H       0.26900   0.74469   0.23015   0.11274
H          H       0.25676   0.58131   0.32445   0.11047
H          H       0.09681   0.90013   0.14383   0.10348
H          H       0.21647   0.83156   0.08336   0.11227
H          H       0.83452   0.90479   0.10808   0.13332
H          H       0.73915   0.93065   0.95858   0.12874
H          H       0.15821   0.83505   0.94783   0.12311
H          H       0.84705   0.51165   0.47635   0.11439
H          H       0.04544   0.34330   0.54439   0.14385
H          H       0.67472   0.24690   0.55992   0.11789
H          H       0.03586   0.16882   0.62423   0.12234
H          H       0.88003   0.13470   0.65069   0.12525
H          H       0.03579   0.95333   0.64140   0.09596
H          H       0.91737   0.18690   0.43969   0.09789
H          H       0.64903   0.70700   0.50886   0.11276
H          H       0.51831   0.71633   0.74372   0.14195
H          H       0.45812   0.53827   0.69726   0.13431
H          H       0.74926   0.82946   0.60722   0.09785
H          H       0.62292   0.86331   0.67800   0.10866
H          H       0.37109   0.90126   0.60257   0.11139
H          H       0.74793   0.96337   0.49994   0.10172
H          H       0.15295   0.48836   0.52365   0.11423
H          H       0.95456   0.65671   0.45561   0.14373
H          H       0.32529   0.75310   0.44008   0.11823
H          H       0.96415   0.83119   0.37577   0.12214
H          H       0.11998   0.86530   0.34931   0.12534
H          H       0.96421   0.04667   0.35860   0.09596
H          H       0.08264   0.81310   0.56031   0.09778
H          H       0.35097   0.29300   0.49113   0.11262
H          H       0.48169   0.28368   0.25628   0.14194
H          H       0.54189   0.46174   0.30274   0.13442
H          H       0.25075   0.17054   0.39278   0.09766
H          H       0.37708   0.13669   0.32200   0.10853
H          H       0.62891   0.09875   0.39743   0.11162
H          H       0.25208   0.03664   0.50006   0.10161
C          C       0.38459   0.20006   0.69742  -0.06666
C          C       0.51691   0.15135   0.71284  -0.10292
C          C       0.54700   0.04570   0.75020  -0.03633
C          C       0.68835   0.99259   0.76744   0.54116
C          C       0.44422   0.98943   0.77064  -0.11306
C          C       0.31166   0.03791   0.75458  -0.03604
C          C       0.20361   0.97472   0.77404   0.53833
C          C       0.28185   0.14425   0.71880  -0.10484
C          C       0.13462   0.70820   0.71909  -0.04761
C          C       0.12138   0.62364   0.68611  -0.09820
C          C       0.92174   0.70387   0.72607   0.07164
C          C       0.92357   0.54400   0.66558  -0.11320
C          C       0.91171   0.45030   0.72807   0.07441
C          C      -0.00072   0.41696   0.78911  -0.12782
C          C       0.99028   0.32605   0.84313  -0.14362
C          C       0.89496   0.26667   0.83618   0.08181
C          C       0.80579   0.30108   0.77543  -0.13015
C          C       0.81344   0.39243   0.72221  -0.13936
C          C       0.88459   0.16453   0.89011  -0.12266
C          C       0.11469   0.10480   0.94736  -0.11030
C          C       0.16004   0.09261   0.02106  -0.04858
C          C       0.94314   0.14323   0.02937   0.06604
C          C       0.61542   0.79994   0.30258  -0.06660
C          C       0.48310   0.84866   0.28716  -0.10282
C          C       0.45301   0.95431   0.24980  -0.03670
C          C       0.31165   0.00741   0.23256   0.54142
C          C       0.55578   0.01057   0.22936  -0.11292
C          C       0.68834   0.96210   0.24542  -0.03596
C          C       0.79639   0.02528   0.22595   0.53793
C          C       0.71816   0.85575   0.28120  -0.10489
C          C       0.86538   0.29180   0.28091  -0.04769
C          C       0.87862   0.37637   0.31389  -0.09851
C          C       0.07827   0.29614   0.27393   0.07178
C          C       0.07643   0.45600   0.33442  -0.11299
C          C       0.08830   0.54970   0.27193   0.07442
C          C       0.00073   0.58304   0.21089  -0.12807
C          C       0.00972   0.67395   0.15687  -0.14335
C          C       0.10504   0.73334   0.16382   0.08167
C          C       0.19421   0.69893   0.22457  -0.12997
C          C       0.18657   0.60757   0.27778  -0.13942
C          C       0.11542   0.83548   0.10989  -0.12259
C          C       0.88531   0.89520   0.05264  -0.11043
C          C       0.83997   0.90739   0.97894  -0.04860
C          C       0.05686   0.85677   0.97063   0.06614
C          C       0.84193   0.43163   0.50361  -0.06427
C          C       0.94032   0.34997   0.53551  -0.12522
C          C       0.74704   0.29728   0.54530   0.08877
C          C       0.94311   0.16087   0.60048  -0.12614
C          C       0.97207   0.07950   0.54699   0.08507
C          C       0.01888   0.97352   0.57934  -0.13625
C          C       0.95371   0.10537   0.46682  -0.15190
C          C       0.60542   0.68402   0.56609   0.07826
C          C       0.53638   0.68650   0.68925  -0.12719
C          C       0.50698   0.59972   0.66545  -0.03934
C          C       0.64120   0.84053   0.62017  -0.12105
C          C       0.56749   0.92356   0.55835   0.08040
C          C       0.42775   0.94451   0.55775  -0.12998
C          C       0.63920   0.97939   0.50016  -0.13531
C          C       0.15808   0.56838   0.49639  -0.06454
C          C       0.05969   0.65004   0.46448  -0.12532
C          C       0.25297   0.70273   0.45470   0.08894
C          C       0.05689   0.83914   0.39952  -0.12603
C          C       0.02794   0.92051   0.45301   0.08500
C          C       0.98113   0.02648   0.42066  -0.13611
C          C       0.04629   0.89464   0.53318  -0.15192
C          C       0.39459   0.31599   0.43391   0.07818
C          C       0.46363   0.31351   0.31075  -0.12709
C          C       0.49303   0.40028   0.33455  -0.03914
C          C       0.35881   0.15947   0.37983  -0.12099
C          C       0.43251   0.07645   0.44165   0.08050
C          C       0.57226   0.05549   0.44225  -0.12989
C          C       0.36081   0.02061   0.49984  -0.13532
S          S       0.34416   0.33461   0.64868   1.15016
S          S       0.65585   0.66540   0.35132   1.15048
N          N       0.00923   0.75771   0.74343  -0.29739
N          N       0.98613   0.62239   0.69055   0.05741
N          N       0.97701   0.13682   0.95364   0.08419
N          N       0.05184   0.11650   0.07166  -0.29729
N          N       0.99078   0.24230   0.25657  -0.29757
N          N       0.01388   0.37761   0.30945   0.05749
N          N       0.02300   0.86319   0.04636   0.08424
N          N       0.94816   0.88350   0.92834  -0.29740
N          N       0.72160   0.39790   0.50992  -0.30898
N          N       0.87830   0.26564   0.56231   0.05800
N          N       0.55035   0.59939   0.58853  -0.29586
N          N       0.59956   0.73876   0.62586   0.04311
N          N       0.27841   0.60210   0.49008  -0.30899
N          N       0.12171   0.73437   0.43769   0.05801
N          N       0.44966   0.40062   0.41146  -0.29560
N          N       0.40045   0.26124   0.37414   0.04294
O          O       0.46645   0.34877   0.59869  -0.63365
O          O       0.31840   0.40285   0.70863  -0.58807
O          O       0.22732   0.33886   0.60225  -0.61489
O          O       0.77890   0.04844   0.75385  -0.55799
O          O       0.71385   0.89399   0.79495  -0.57474
O          O       0.23242   0.87939   0.80664  -0.57418
O          O       0.08450   0.02443   0.75508  -0.56073
O          O       0.53356   0.65124   0.40131  -0.63407
O          O       0.68161   0.59716   0.29136  -0.58827
O          O       0.77269   0.66115   0.39775  -0.61468
O          O       0.22110   0.95156   0.24614  -0.55846
O          O       0.28616   0.10602   0.20505  -0.57444
O          O       0.76758   0.12061   0.19336  -0.57376
O          O       0.91551   0.97558   0.24491  -0.56066

