data_crystal

_audit_creation_method 'AiiDA-DDEC plugin'

_cell_length_a         8.38195
_cell_length_b        17.96576
_cell_length_c        19.55966

_cell_angle_alpha     90.39158
_cell_angle_beta     89.82321
_cell_angle_gamma     89.93211

_symmetry_space_group_name_Hall 'P 1'
_symmetry_space_group_name_H-M  'P 1'

loop_
_symmetry_equiv_pos_as_xyz
 'x,y,z'

loop_
_atom_site_label
_atom_site_type_symbol
_atom_site_fract_x
_atom_site_fract_y
_atom_site_fract_z
_atom_site_charge
La         La      0.95460   0.74956   0.74982   1.91085
La         La      0.54682   0.25040   0.24970   1.90983
La         La      0.04539   0.25044   0.25018   1.91096
La         La      0.45317   0.74960   0.75030   1.90961
H          H       0.10348   0.95567   0.69796   0.13063
H          H       0.39952   0.89903   0.53456   0.10956
H          H       0.75765   0.92880   0.49634   0.11479
H          H       0.17699   0.02551   0.59343   0.11738
H          H       0.02943   0.73764   0.56446   0.10191
H          H       0.31377   0.91515   0.41324   0.10325
H          H       0.70000   0.86642   0.60631   0.12804
H          H       0.08676   0.84120   0.36785   0.10086
H          H       0.94373   0.75213   0.44379   0.09593
H          H       0.10440   0.54369   0.80162   0.13075
H          H       0.39966   0.60014   0.96671   0.11017
H          H       0.75706   0.57115   0.00363   0.11445
H          H       0.17713   0.47409   0.90622   0.11660
H          H       0.02848   0.76113   0.93609   0.10124
H          H       0.31288   0.58494   0.08819   0.10339
H          H       0.69957   0.63324   0.89368   0.12765
H          H       0.08556   0.65951   0.13343   0.10070
H          H       0.94242   0.74789   0.05702   0.09567
H          H       0.40260   0.04472   0.19926   0.13001
H          H       0.10049   0.09903   0.03303   0.11043
H          H       0.74339   0.07036   0.99544   0.11459
H          H       0.32527   0.97523   0.09445   0.11660
H          H       0.46946   0.26068   0.06613   0.10217
H          H       0.18705   0.08477   0.91130   0.10392
H          H       0.80530   0.13263   0.10577   0.12762
H          H       0.41417   0.15952   0.86731   0.10066
H          H       0.55607   0.24785   0.94513   0.09614
H          H       0.40215   0.45590   0.30093   0.13006
H          H       0.10089   0.40133   0.46732   0.11077
H          H       0.74335   0.42927   0.50357   0.11449
H          H       0.32511   0.52525   0.40603   0.11703
H          H       0.46958   0.23916   0.43456   0.10215
H          H       0.18585   0.41613   0.58912   0.10343
H          H       0.80501   0.36730   0.39304   0.12775
H          H       0.41218   0.34112   0.63328   0.09989
H          H       0.55523   0.25236   0.55565   0.09546
H          H       0.89651   0.04433   0.30204   0.13084
H          H       0.60047   0.10097   0.46543   0.10975
H          H       0.24234   0.07119   0.50366   0.11457
H          H       0.82300   0.97448   0.40657   0.11754
H          H       0.97056   0.26236   0.43554   0.10185
H          H       0.68622   0.08485   0.58676   0.10325
H          H       0.30000   0.13358   0.39368   0.12792
H          H       0.91323   0.15880   0.63215   0.10072
H          H       0.05626   0.24786   0.55620   0.09575
H          H       0.89559   0.45631   0.19838   0.13065
H          H       0.60033   0.39986   0.03329   0.11025
H          H       0.24293   0.42885   0.99637   0.11449
H          H       0.82286   0.52591   0.09377   0.11666
H          H       0.97151   0.23887   0.06391   0.10122
H          H       0.68711   0.41506   0.91181   0.10351
H          H       0.30042   0.36676   0.10632   0.12758
H          H       0.91443   0.34049   0.86657   0.10077
H          H       0.05757   0.25211   0.94298   0.09566
H          H       0.59739   0.95528   0.80073   0.13011
H          H       0.89950   0.90096   0.96697   0.11039
H          H       0.25660   0.92964   0.00456   0.11457
H          H       0.67472   0.02477   0.90555   0.11647
H          H       0.53053   0.73932   0.93387   0.10235
H          H       0.81294   0.91523   0.08869   0.10374
H          H       0.19469   0.86737   0.89422   0.12768
H          H       0.58582   0.84048   0.13269   0.10053
H          H       0.44392   0.75215   0.05487   0.09623
H          H       0.59784   0.54410   0.69907   0.12974
H          H       0.89910   0.59867   0.53268   0.11058
H          H       0.25665   0.57072   0.49643   0.11465
H          H       0.67488   0.47475   0.59396   0.11689
H          H       0.53042   0.76084   0.56543   0.10215
H          H       0.81414   0.58387   0.41088   0.10344
H          H       0.19498   0.63270   0.60696   0.12791
H          H       0.58781   0.65888   0.36672   0.10007
H          H       0.44476   0.74764   0.44435   0.09562
C          C       0.21817   0.81805   0.55686  -0.05166
C          C       0.03416   0.95329   0.65119  -0.07122
C          C       0.30009   0.86741   0.51378  -0.08920
C          C       0.97897   0.98232   0.53136   0.04361
C          C       0.84010   0.93673   0.53853  -0.17234
C          C       0.07190   0.99019   0.59222  -0.17832
C          C       0.09029   0.77659   0.53118  -0.10128
C          C       0.25273   0.87568   0.44609  -0.09596
C          C       0.80437   0.90107   0.59838  -0.07329
C          C       0.12422   0.83424   0.42065  -0.07699
C          C       0.04347   0.78467   0.46313  -0.09004
C          C       0.27471   0.80826   0.62814   0.59066
C          C       0.21777   0.68091   0.94409  -0.04591
C          C       0.03459   0.54627   0.84845  -0.07207
C          C       0.29990   0.63196   0.98740  -0.09215
C          C       0.97894   0.51756   0.96859   0.04301
C          C       0.83986   0.56314   0.96135  -0.17298
C          C       0.07200   0.50950   0.90749  -0.17633
C          C       0.08948   0.72259   0.96966  -0.10271
C          C       0.25213   0.62430   0.05524  -0.09513
C          C       0.80430   0.59869   0.90145  -0.07276
C          C       0.12351   0.66612   0.08058  -0.07749
C          C       0.04256   0.71524   0.03786  -0.08951
C          C       0.27347   0.69021   0.87243   0.58944
C          C       0.28167   0.17993   0.05718  -0.04449
C          C       0.47079   0.04696   0.15205  -0.07179
C          C       0.20007   0.13109   0.01301  -0.09250
C          C       0.52212   0.01772   0.03139   0.04299
C          C       0.66192   0.06287   0.03818  -0.17273
C          C       0.43083   0.01021   0.09289  -0.17515
C          C       0.40931   0.22193   0.03208  -0.10484
C          C       0.24755   0.12395   0.94496  -0.09580
C          C       0.69996   0.09844   0.09824  -0.07361
C          C       0.37589   0.16588   0.92023  -0.07708
C          C       0.45625   0.21496   0.96372  -0.09066
C          C       0.22570   0.18887   0.12904   0.58552
C          C       0.28173   0.32005   0.44364  -0.04411
C          C       0.47043   0.45341   0.34794  -0.07289
C          C       0.19993   0.36925   0.48761  -0.09304
C          C       0.52197   0.48232   0.46849   0.04384
C          C       0.66169   0.43700   0.46114  -0.17403
C          C       0.43057   0.49006   0.40727  -0.17533
C          C       0.40925   0.27804   0.46864  -0.10632
C          C       0.24679   0.37673   0.55557  -0.09553
C          C       0.69965   0.40158   0.40090  -0.07203
C          C       0.37484   0.33468   0.58032  -0.07665
C          C       0.45568   0.28531   0.53692  -0.08857
C          C       0.22598   0.31096   0.37200   0.58783
C          C       0.78182   0.18195   0.44313  -0.05158
C          C       0.96584   0.04670   0.34880  -0.07117
C          C       0.69990   0.13259   0.48622  -0.08912
C          C       0.02102   0.01768   0.46864   0.04376
C          C       0.15989   0.06327   0.46147  -0.17251
C          C       0.92809   0.00981   0.40777  -0.17830
C          C       0.90970   0.22341   0.46882  -0.10123
C          C       0.74726   0.12431   0.55391  -0.09599
C          C       0.19562   0.09893   0.40162  -0.07332
C          C       0.87577   0.16576   0.57935  -0.07700
C          C       0.95652   0.21533   0.53687  -0.09020
C          C       0.72528   0.19174   0.37185   0.59035
C          C       0.78222   0.31909   0.05591  -0.04571
C          C       0.96540   0.45373   0.15155  -0.07217
C          C       0.70009   0.36803   0.01259  -0.09224
C          C       0.02105   0.48244   0.03141   0.04287
C          C       0.16013   0.43686   0.03865  -0.17295
C          C       0.92799   0.49049   0.09251  -0.17623
C          C       0.91051   0.27741   0.03033  -0.10301
C          C       0.74786   0.37570   0.94475  -0.09502
C          C       0.19569   0.40131   0.09855  -0.07302
C          C       0.87649   0.33388   0.91941  -0.07742
C          C       0.95743   0.28476   0.96214  -0.08947
C          C       0.72652   0.30978   0.12757   0.58945
C          C       0.71832   0.82007   0.94282  -0.04419
C          C       0.52920   0.95304   0.84795  -0.07174
C          C       0.79992   0.86891   0.98698  -0.09266
C          C       0.47787   0.98228   0.96860   0.04330
C          C       0.33807   0.93713   0.96182  -0.17297
C          C       0.56917   0.98979   0.90711  -0.17533
C          C       0.59068   0.77807   0.96792  -0.10491
C          C       0.75245   0.87605   0.05503  -0.09599
C          C       0.30003   0.90156   0.90176  -0.07329
C          C       0.62410   0.83412   0.07976  -0.07709
C          C       0.54374   0.78504   0.03628  -0.09059
C          C       0.77429   0.81113   0.87096   0.58529
C          C       0.71826   0.67995   0.55635  -0.04403
C          C       0.52957   0.54659   0.65206  -0.07295
C          C       0.80006   0.63075   0.51238  -0.09320
C          C       0.47802   0.51768   0.53150   0.04398
C          C       0.33831   0.56300   0.53885  -0.17382
C          C       0.56942   0.50993   0.59272  -0.17537
C          C       0.59075   0.72196   0.53135  -0.10645
C          C       0.75321   0.62327   0.44443  -0.09537
C          C       0.30034   0.59842   0.59910  -0.07217
C          C       0.62515   0.66532   0.41968  -0.07662
C          C       0.54431   0.71469   0.46308  -0.08849
C          C       0.77401   0.68904   0.62800   0.58793
N          N       0.90350   0.90737   0.65392   0.31511
N          N       0.90375   0.59225   0.84569   0.31366
N          N       0.60229   0.09241   0.15453   0.31126
N          N       0.60197   0.40784   0.34488   0.31065
N          N       0.09649   0.09263   0.34608   0.31511
N          N       0.09624   0.40775   0.15431   0.31402
N          N       0.39770   0.90759   0.84546   0.31101
N          N       0.39803   0.59216   0.65511   0.31085
O          O       0.87229   0.86958   0.71143  -0.62281
O          O       0.18650   0.77469   0.67319  -0.70239
O          O       0.41446   0.82951   0.64337  -0.57753
O          O       0.87259   0.62979   0.78799  -0.62236
O          O       0.18354   0.72247   0.82750  -0.70000
O          O       0.41442   0.67024   0.85703  -0.57955
O          O       0.63523   0.12994   0.21259  -0.62307
O          O       0.31432   0.22216   0.17442  -0.70447
O          O       0.08588   0.16767   0.14448  -0.57572
O          O       0.63502   0.37055   0.28656  -0.62151
O          O       0.31571   0.27833   0.32644  -0.70317
O          O       0.08553   0.33140   0.35702  -0.57743
O          O       0.12770   0.13042   0.28857  -0.62273
O          O       0.81349   0.22531   0.32681  -0.70235
O          O       0.58553   0.17049   0.35662  -0.57714
O          O       0.12741   0.37020   0.21201  -0.62271
O          O       0.81645   0.27753   0.17250  -0.70033
O          O       0.58557   0.32976   0.14297  -0.57932
O          O       0.36476   0.87006   0.78741  -0.62256
O          O       0.68568   0.77784   0.82558  -0.70413
O          O       0.91411   0.83233   0.85552  -0.57586
O          O       0.36497   0.62945   0.71344  -0.62165
O          O       0.68428   0.72167   0.67356  -0.70323
O          O       0.91446   0.66860   0.64297  -0.57761

