data_crystal

_audit_creation_method 'AiiDA-DDEC plugin'

_cell_length_a        12.33199
_cell_length_b        13.27597
_cell_length_c        20.60350

_cell_angle_alpha     88.84827
_cell_angle_beta     107.81303
_cell_angle_gamma     108.09390

_symmetry_space_group_name_Hall 'P 1'
_symmetry_space_group_name_H-M  'P 1'

loop_
_symmetry_equiv_pos_as_xyz
 'x,y,z'

loop_
_atom_site_label
_atom_site_type_symbol
_atom_site_fract_x
_atom_site_fract_y
_atom_site_fract_z
_atom_site_charge
Ag         Ag      0.68711   0.92391   0.06892   0.28174
Ag         Ag      0.53785   0.33809   0.20807   0.31735
Ag         Ag      0.19242   0.71917   0.59602  -0.01837
Ag         Ag      0.11695   0.41210   0.32304   0.29375
Ag         Ag      0.60786   0.17793   0.44010   0.07143
Ag         Ag      0.61406   0.34554   0.36025  -0.05785
Ag         Ag     -0.00087   0.59179   0.41863   0.26237
Ag         Ag      0.31496   0.07598   0.93018   0.28226
Ag         Ag      0.46054   0.66133   0.79101   0.31551
Ag         Ag      0.80511   0.27787   0.40443  -0.02331
Ag         Ag      0.88257   0.58879   0.67611   0.29406
Ag         Ag      0.39037   0.82074   0.56114   0.06764
Ag         Ag      0.38462   0.65243   0.63970  -0.05515
Ag         Ag     -0.00028   0.40769   0.58060   0.26248
H          H       0.70969   0.83689   0.38526   0.13358
H          H       0.58026   0.95225   0.37714   0.08826
H          H       0.93302   0.00591   0.58108   0.12748
H          H       0.79592   0.11499   0.56452   0.08862
H          H       0.06809   0.39921   0.17608   0.11051
H          H       0.86218   0.02402   0.21795   0.11099
H          H       0.48945   0.44228   0.57641   0.11563
H          H       0.64273   0.12674   0.05210   0.09685
H          H       0.61087   0.33062   0.56212   0.09077
H          H       0.18851   0.36197   0.01300   0.08054
H          H       0.33881   0.54447   0.03617   0.12757
H          H       0.91100   0.19034   0.29047   0.13191
H          H       0.08042   0.09995   0.04563   0.08948
H          H       0.68654   0.29793   0.11693   0.12242
H          H       0.20228   0.25560   0.40258   0.10676
H          H       0.25448   0.18393   0.14844   0.12191
H          H       0.25163   0.31161   0.83216   0.08554
H          H       0.40939   0.48646   0.84974   0.11217
H          H       0.90315   0.30715   0.07086   0.08289
H          H       0.33578   0.15168   0.39498   0.08810
H          H       0.29096   0.16390   0.61581   0.13356
H          H       0.41990   0.04849   0.62442   0.08787
H          H       0.06926   0.99622   0.41958   0.12748
H          H       0.20544   0.88682   0.43597   0.08868
H          H       0.93130   0.60281   0.82323   0.11044
H          H       0.14019   0.97569   0.78116   0.11212
H          H       0.51138   0.55876   0.42358   0.11511
H          H       0.35676   0.87159   0.94778   0.09751
H          H       0.38864   0.66853   0.43816   0.08998
H          H       0.81213   0.63818   0.98790   0.07993
H          H       0.66168   0.45558   0.96437   0.12765
H          H       0.09076   0.80940   0.70899   0.13234
H          H       0.91884   0.90202   0.95372   0.08915
H          H       0.31197   0.70014   0.88332   0.12296
H          H       0.79746   0.74571   0.59787   0.10752
H          H       0.74527   0.81832   0.85043   0.12108
H          H       0.74899   0.68730   0.16895   0.08586
H          H       0.59142   0.51228   0.15111   0.11100
H          H       0.09582   0.69415   0.92900   0.08274
H          H       0.66320   0.84851   0.60527   0.08861
C          C       0.73165   0.89818   0.42576  -0.16542
C          C       0.65930   0.96157   0.42150   0.07354
C          C       0.83302   0.91270   0.48384   0.07896
C          C       0.85535   0.99107   0.53532  -0.16197
C          C       0.77856   0.05143   0.52643   0.07694
C          C       0.07424   0.33284   0.14880  -0.18536
C          C       0.27371   0.34779   0.23427   0.23257
C          C       0.82523   0.08673   0.19753   0.08576
C          C       0.45153   0.37804   0.53588  -0.15338
C          C       0.70175   0.14339   0.10480   0.07920
C          C       0.51933   0.31549   0.52804   0.07664
C          C       0.23784   0.39319   0.97724   0.08938
C          C       0.33604   0.35931   0.48916   0.07608
C          C       0.17517   0.29808   0.17205   0.05994
C          C       0.47454   0.63835   0.95535   0.21974
C          C       0.26108   0.42301   0.49399   0.22884
C          C       0.82620   0.35944   0.24588   0.21045
C          C       0.32209   0.49488   0.99049  -0.17425
C          C       0.85334   0.18036   0.23744  -0.15688
C          C       0.90952   0.84610   0.49064   0.20225
C          C       0.38605   0.53202   0.94414   0.05168
C          C       0.08012   0.16634   0.07581   0.08796
C          C       0.72570   0.23852   0.14115  -0.15340
C          C       0.29334   0.27597   0.43789  -0.16268
C          C       0.17795   0.21329   0.13368  -0.16924
C          C       0.80283   0.25874   0.20887   0.08191
C          C       0.27328   0.36425   0.87747   0.08978
C          C       0.36124   0.46346   0.88683  -0.16429
C          C       0.98178   0.28086   0.08997   0.08239
C          C       0.36651   0.21674   0.43435   0.07687
C          C       0.26939   0.10294   0.57519  -0.16592
C          C       0.34143   0.03914   0.57970   0.07371
C          C       0.16865   0.08883   0.51687   0.07983
C          C       0.14662   0.01058   0.46542  -0.16339
C          C       0.22304   0.94988   0.47447   0.07805
C          C       0.92546   0.66925   0.85061  -0.18333
C          C       0.72607   0.65349   0.76528   0.23208
C          C       0.17632   0.91266   0.80193   0.08385
C          C       0.54879   0.62274   0.46423  -0.15179
C          C       0.29807   0.85522   0.89501   0.07963
C          C       0.48036   0.68458   0.47220   0.07731
C          C       0.76266   0.60677   0.02356   0.09162
C          C       0.66432   0.64161   0.51092   0.07605
C          C       0.82462   0.70404   0.82727   0.06035
C          C       0.52586   0.36125   0.04463   0.21999
C          C       0.73899   0.57776   0.50572   0.22738
C          C       0.17288   0.63878   0.75395   0.21227
C          C       0.67846   0.50507   0.01011  -0.17499
C          C       0.14764   0.81877   0.76216  -0.15657
C          C       0.09182   0.15515   0.50956   0.20119
C          C       0.61447   0.46757   0.05639   0.05166
C          C       0.91926   0.83563   0.92356   0.08742
C          C       0.27343   0.75976   0.85880  -0.15319
C          C       0.70651   0.72480   0.56232  -0.16459
C          C       0.82180   0.78899   0.86545  -0.16769
C          C       0.19687   0.73972   0.79095   0.08029
C          C       0.72720   0.63498   0.12346   0.08920
C          C       0.63932   0.53567   0.11392  -0.16289
C          C       0.01751   0.72085   0.90966   0.07956
C          C       0.63280   0.78357   0.56583   0.07651
N          N       0.75051   0.06759   0.13220  -0.17110
N          N       0.44743   0.40031   0.31154   0.02407
N          N       0.38814   0.34867   0.24829  -0.23911
N          N       0.26349   0.39775   0.28774  -0.22278
N          N       0.74239   0.40824   0.23811  -0.21899
N          N       0.79715   0.50022   0.27801  -0.04506
N          N       0.18196   0.44843   0.43978  -0.23401
N          N       0.17123   0.50688   0.53518  -0.05122
N          N       0.60043   0.78274   0.93730  -0.11056
N          N       0.37352   0.42979   0.33527  -0.05701
N          N       0.91061   0.50741   0.30865  -0.03238
N          N       0.25676   0.45959   0.55335  -0.22676
N          N       0.98822   0.73719   0.46556  -0.03501
N          N       0.98414   0.83064   0.55091  -0.28660
N          N       0.98198   0.19770   0.05374  -0.28801
N          N       0.68136   0.03808   0.47050  -0.18630
N          N       0.21158   0.32780   0.92145  -0.28962
N          N       0.52744   0.68635   0.90868  -0.22770
N          N       0.47867   0.23566   0.47815  -0.18187
N          N       0.93170   0.41945   0.28972  -0.21079
N          N       0.12752   0.50138   0.46727  -0.04349
N          N       0.91066   0.78895   0.43744  -0.26820
N          N       0.51240   0.70351   0.01256  -0.28001
N          N       0.59049   0.79133  -0.00048  -0.00565
N          N       0.03150   0.76150   0.53400   0.01704
N          N       0.25058   0.93165   0.86737  -0.17244
N          N       0.55195   0.59809   0.68853   0.01792
N          N       0.61125   0.65138   0.75132  -0.23626
N          N       0.73659   0.60274   0.71223  -0.22506
N          N       0.25623   0.58944   0.76174  -0.22116
N          N       0.20117   0.49777   0.72153  -0.04526
N          N       0.81886   0.55292   0.55976  -0.23181
N          N       0.82780   0.49305   0.46426  -0.05012
N          N       0.39892   0.21667   0.06160  -0.10994
N          N       0.62632   0.56892   0.66503  -0.05483
N          N       0.08793   0.49123   0.69075  -0.03157
N          N       0.74215   0.54021   0.44627  -0.22683
N          N       0.01088   0.26261   0.53391  -0.03494
N          N       0.01682   0.16945   0.44907  -0.28695
N          N       0.01703   0.80378   0.94599  -0.28675
N          N       0.31963   0.96262   0.53071  -0.18659
N          N       0.78880   0.67185   0.07949  -0.29032
N          N       0.47149   0.31297   0.09064  -0.22741
N          N       0.52050   0.76430   0.52210  -0.18244
N          N       0.06733   0.57938   0.70985  -0.21195
N          N       0.87270   0.49949   0.53217  -0.04538
N          N       0.08962   0.21220   0.56244  -0.26708
N          N       0.48933   0.29639   0.98741  -0.27971
N          N       0.41057   0.20843  -0.00022  -0.00671
N          N       0.96799   0.23770   0.46553   0.01961

