data_crystal

_audit_creation_method 'AiiDA-DDEC plugin'

_cell_length_a        15.94631
_cell_length_b        15.95017
_cell_length_c        19.45243

_cell_angle_alpha     114.73627
_cell_angle_beta     114.58999
_cell_angle_gamma     89.42197

_symmetry_space_group_name_Hall 'P 1'
_symmetry_space_group_name_H-M  'P 1'

loop_
_symmetry_equiv_pos_as_xyz
 'x,y,z'

loop_
_atom_site_label
_atom_site_type_symbol
_atom_site_fract_x
_atom_site_fract_y
_atom_site_fract_z
_atom_site_charge
Cu         Cu      0.49555   0.26805   0.27766   0.89540
Cu         Cu      0.78331   0.50892   0.27802   0.89760
Cu         Cu      0.00383   0.99126   0.72172   0.89609
Cu         Cu      0.71639   0.23191   0.72130   0.89364
Cu         Cu      0.49124   0.50377   0.22182   0.89931
Cu         Cu      0.73132   0.21630   0.22039   0.89850
Cu         Cu      0.00912   0.28336   0.77871   0.90317
Cu         Cu      0.76810   0.99565   0.77760   0.89974
Cu         Cu      0.58700   0.24992   0.49937   0.74202
Cu         Cu      0.91235   0.74969   0.49984   0.74082
Cu         Cu      0.24960   0.41262   0.00015   0.73986
Cu         Cu      0.74953   0.08681  -0.00098   0.74110
Cu         Cu      0.50876   0.49622   0.77818   0.89928
Cu         Cu      0.26868   0.78370   0.77961   0.89849
Cu         Cu      0.99088   0.71664   0.22129   0.90327
Cu         Cu      0.23190   0.00435   0.22240   0.89976
Cu         Cu      0.50445   0.73194   0.72233   0.89533
Cu         Cu      0.21669   0.49108   0.72197   0.89771
Cu         Cu      0.99617   0.00873   0.27828   0.89595
Cu         Cu      0.28361   0.76808   0.27870   0.89367
Cu         Cu      0.75040   0.58738  -0.00015   0.73988
Cu         Cu      0.25046   0.91319   0.00098   0.74112
Cu         Cu      0.41300   0.75007   0.50063   0.74197
Cu         Cu      0.08764   0.25031   0.50016   0.74076
H          H       0.62339   0.57893   0.53845   0.16816
H          H       0.91409   0.45959   0.53792   0.16864
H          H       0.87771   0.04004   0.46152   0.16848
H          H       0.58577   0.92062   0.46075   0.16889
H          H       0.53979   0.37779   0.96130   0.16850
H          H       0.42049   0.08595   0.96058   0.16868
H          H       0.95960   0.41422   0.03875   0.16871
H          H       0.07842   0.12313   0.03832   0.16870
H          H       0.46021   0.62221   0.03870   0.16845
H          H       0.57951   0.91404   0.03942   0.16868
H          H       0.04041   0.58577   0.96125   0.16871
H          H       0.92158   0.87687   0.96168   0.16879
H          H       0.37661   0.42106   0.46155   0.16819
H          H       0.08591   0.54040   0.46207   0.16860
H          H       0.12229   0.95996   0.53848   0.16848
H          H       0.41423   0.07938   0.53925   0.16877
C          C       0.52492   0.46464   0.33960   0.55032
C          C       0.55781   0.44823   0.41393   0.03237
C          C       0.60237   0.50303   0.50234  -0.18008
C          C       0.61198   0.43686   0.53357   0.03592
C          C       0.64534   0.44003   0.61918   0.54502
C          C       0.81561   0.37408   0.33903   0.55196
C          C       0.85677   0.46523   0.41377   0.03173
C          C       0.89967   0.49932   0.50212  -0.18057
C          C       0.92160   0.59714   0.53379   0.03663
C          C       0.97306   0.68054   0.61966   0.54633
C          C       0.97553   0.12551   0.66026   0.54941
C          C       0.94221   0.03425   0.58565   0.03345
C          C       0.89791   0.00017   0.49730  -0.18057
C          C       0.88780   0.90221   0.46569   0.03476
C          C       0.85455   0.81855   0.38000   0.54654
C          C       0.68474   0.03517   0.65948   0.54862
C          C       0.64310   0.05144   0.58503   0.03256
C          C       0.59983   0.99658   0.49664  -0.18074
C          C       0.57742   0.06283   0.46541   0.03554
C          C       0.52595   0.05973   0.37973   0.54754
C          C       0.62516   0.47516   0.15990   0.55120
C          C       0.53391   0.44217   0.08550   0.03087
C          C       0.49989   0.39793   0.99715  -0.18006
C          C       0.40204   0.38798   0.96573   0.03568
C          C       0.31870   0.35485   0.88006   0.54702
C          C       0.53500   0.18467   0.15923   0.54916
C          C       0.55110   0.14273   0.08457   0.03381
C          C       0.49635   0.09974   0.99619  -0.18182
C          C       0.56254   0.07731   0.96472   0.03874
C          C       0.55966   0.02561   0.87897   0.54691
C          C       0.87427   0.31558   0.83981   0.55030
C          C       0.96532   0.35677   0.91452   0.03389
C          C      -0.00061   0.39983   0.00290  -0.18195
C          C       0.09716   0.42182   0.03438   0.03804
C          C       0.18027   0.47393   0.12019   0.54477
C          C       0.96457   0.02484   0.83956   0.55056
C          C       0.94796   0.05754   0.91386   0.03161
C          C       0.00257   0.10216   0.00227  -0.18020
C          C       0.93626   0.11173   0.03347   0.03649
C          C       0.93916   0.14478   0.11904   0.54510
C          C       0.37484   0.52484   0.84010   0.55114
C          C       0.46609   0.55782   0.91450   0.03081
C          C       0.50011   0.60207   0.00285  -0.18010
C          C       0.59796   0.61202   0.03427   0.03559
C          C       0.68131   0.64515   0.11993   0.54694
C          C       0.46500   0.81533   0.84077   0.54919
C          C       0.44890   0.85727   0.91543   0.03385
C          C       0.50365   0.90025   0.00381  -0.18186
C          C       0.43746   0.92268   0.03528   0.03875
C          C       0.44034   0.97438   0.12103   0.54707
C          C       0.12573   0.68442   0.16019   0.55043
C          C       0.03468   0.64323   0.08548   0.03370
C          C       0.00061   0.60017   0.99710  -0.18185
C          C       0.90285   0.57818   0.96561   0.03815
C          C       0.81973   0.52606   0.87980   0.54450
C          C       0.03543   0.97516   0.16044   0.55058
C          C       0.05204   0.94246   0.08614   0.03168
C          C       0.99743   0.89784   0.99773  -0.18036
C          C       0.06374   0.88827   0.96653   0.03659
C          C       0.06084   0.85521   0.88096   0.54509
C          C       0.47508   0.53536   0.66040   0.55029
C          C       0.44219   0.55176   0.58606   0.03256
C          C       0.39763   0.49696   0.49766  -0.17993
C          C       0.38802   0.56313   0.46643   0.03602
C          C       0.35466   0.55996   0.38081   0.54495
C          C       0.18439   0.62592   0.66097   0.55200
C          C       0.14323   0.53477   0.58622   0.03178
C          C       0.10033   0.50068   0.49788  -0.18061
C          C       0.07839   0.40285   0.46620   0.03640
C          C       0.02693   0.31945   0.38033   0.54633
C          C       0.02447   0.87449   0.33974   0.54935
C          C       0.05779   0.96574   0.41435   0.03353
C          C       0.10209  -0.00017   0.50270  -0.18039
C          C       0.11220   0.09779   0.53431   0.03474
C          C       0.14544   0.18145   0.62000   0.54654
C          C       0.31526   0.96483   0.34052   0.54863
C          C       0.35690   0.94856   0.41496   0.03244
C          C       0.40017   0.00341   0.50335  -0.18083
C          C       0.42258   0.93717   0.53459   0.03556
C          C       0.47404   0.94026   0.62027   0.54758
N          N       0.54242   0.35493   0.39467  -0.22533
N          N       0.57565   0.34896   0.46712  -0.17617
N          N       0.85353   0.53933   0.39494  -0.22422
N          N       0.89248   0.61823   0.46760  -0.17679
N          N       0.95693   0.96007   0.60462  -0.22592
N          N       0.92354   0.88111   0.53199  -0.17433
N          N       0.64614   0.14481   0.60426  -0.22561
N          N       0.60657   0.15077   0.53178  -0.17498
N          N       0.45983   0.45717   0.10468  -0.22605
N          N       0.38093   0.42374   0.03210  -0.17447
N          N       0.64429   0.14549   0.10357  -0.22720
N          N       0.65024   0.10624   0.03099  -0.17689
N          N       0.03935   0.35361   0.89554  -0.22713
N          N       0.11820   0.39255   0.96812  -0.17692
N          N       0.85472   0.04195   0.89455  -0.22602
N          N       0.84862   0.07537   0.96703  -0.17621
N          N       0.54017   0.54283   0.89532  -0.22591
N          N       0.61907   0.57626   0.96790  -0.17442
N          N       0.35571   0.85450   0.89643  -0.22719
N          N       0.34976   0.89375   0.96901  -0.17700
N          N       0.96065   0.64639   0.10445  -0.22709
N          N       0.88180   0.60745   0.03188  -0.17708
N          N       0.14527   0.95805   0.10545  -0.22611
N          N       0.15138   0.92462   0.03297  -0.17614
N          N       0.45759   0.64507   0.60533  -0.22544
N          N       0.42435   0.65104   0.53288  -0.17642
N          N       0.14647   0.46066   0.60505  -0.22438
N          N       0.10752   0.38177   0.53240  -0.17648
N          N       0.04307   0.03992   0.39538  -0.22595
N          N       0.07645   0.11889   0.46801  -0.17441
N          N       0.35386   0.85518   0.39574  -0.22542
N          N       0.39343   0.84922   0.46822  -0.17487
O          O       0.48814   0.39088   0.26586  -0.56291
O          O       0.53264   0.54605   0.34298  -0.46451
O          O       0.64173   0.35660   0.61671  -0.57993
O          O       0.66958   0.51685   0.68316  -0.41174
O          O       0.77809   0.37449   0.26575  -0.56413
O          O       0.81222   0.29545   0.34139  -0.46397
O          O       0.97393   0.76161   0.61739  -0.58108
O          O       0.01251   0.66828   0.68364  -0.41204
O          O       0.01238   0.12537   0.73367  -0.56428
O          O       0.96834   0.20400   0.65761  -0.46372
O          O       0.85832   0.73756   0.38245  -0.58097
O          O       0.83017   0.83024   0.31587  -0.41060
O          O       0.72259   0.10913   0.73305  -0.56309
O          O       0.68798   0.95376   0.65648  -0.46338
O          O       0.52526   0.14311   0.38204  -0.58045
O          O       0.48654   0.98293   0.31578  -0.41178
O          O       0.62516   0.51219   0.23348  -0.56433
O          O       0.70345   0.46756   0.15689  -0.46354
O          O       0.23766   0.35848   0.88261  -0.58176
O          O       0.33079   0.33075   0.81611  -0.41139
O          O       0.60901   0.22275   0.23273  -0.56285
O          O       0.45373   0.18787   0.15649  -0.46360
O          O       0.64316   0.02506   0.88139  -0.58056
O          O       0.48295   0.98589   0.81518  -0.41277
O          O       0.87470   0.27801   0.76642  -0.56393
O          O       0.79575   0.31233   0.84239  -0.46348
O          O       0.26140   0.47494   0.11790  -0.57987
O          O       0.16733   0.51362   0.18387  -0.41246
O          O       0.89091   0.98811   0.76582  -0.56307
O          O       0.04594   0.03270   0.84294  -0.46387
O          O       0.85561   0.14190   0.11653  -0.58053
O          O       0.01581   0.16778   0.18273  -0.41201
O          O       0.37484   0.48780   0.76652  -0.56422
O          O       0.29655   0.53243   0.84311  -0.46362
O          O       0.76234   0.64152   0.11739  -0.58167
O          O       0.66921   0.66925   0.18389  -0.41140
O          O       0.39099   0.77724   0.76727  -0.56280
O          O       0.54627   0.81212   0.84351  -0.46358
O          O       0.35684   0.97494   0.11860  -0.58066
O          O       0.51705   0.01411   0.18482  -0.41289
O          O       0.12530   0.72199   0.23358  -0.56403
O          O       0.20425   0.68766   0.15761  -0.46346
O          O       0.73861   0.52506   0.88210  -0.57989
O          O       0.83267   0.48638   0.81613  -0.41218
O          O       0.10909   0.01188   0.23418  -0.56314
O          O       0.95406   0.96730   0.15706  -0.46385
O          O       0.14439   0.85810   0.88346  -0.58051
O          O       0.98419   0.83221   0.81727  -0.41197
O          O       0.51186   0.60912   0.73414  -0.56307
O          O       0.46736   0.45395   0.65702  -0.46425
O          O       0.35827   0.64340   0.38329  -0.57996
O          O       0.33042   0.48315   0.31684  -0.41157
O          O       0.22191   0.62551   0.73425  -0.56419
O          O       0.18778   0.70455   0.65861  -0.46416
O          O       0.02605   0.23839   0.38261  -0.58079
O          O       0.98748   0.33172   0.31636  -0.41214
O          O       0.98762   0.87463   0.26633  -0.56426
O          O       0.03166   0.79600   0.34239  -0.46360
O          O       0.14168   0.26244   0.61755  -0.58108
O          O       0.16983   0.16976   0.68413  -0.41059
O          O       0.27741   0.89087   0.26695  -0.56302
O          O       0.31202   0.04624   0.34352  -0.46356
O          O       0.47474   0.85688   0.61795  -0.58033
O          O       0.51346   0.01706   0.68422  -0.41197

