data_crystal

_audit_creation_method 'AiiDA-DDEC plugin'

_cell_length_a         9.80245
_cell_length_b        17.44217
_cell_length_c        20.78226

_cell_angle_alpha     90.00000
_cell_angle_beta     89.99730
_cell_angle_gamma     90.00000

_symmetry_space_group_name_Hall 'P 1'
_symmetry_space_group_name_H-M  'P 1'

loop_
_symmetry_equiv_pos_as_xyz
 'x,y,z'

loop_
_atom_site_label
_atom_site_type_symbol
_atom_site_fract_x
_atom_site_fract_y
_atom_site_fract_z
_atom_site_charge
Zn         Zn      0.68958   0.17522   0.18605   0.71505
Zn         Zn      0.31042   0.17522   0.81395   0.71514
Zn         Zn      0.18961   0.32480   0.31378   0.71558
Zn         Zn      0.81039   0.32480   0.68623   0.71565
Zn         Zn      0.31042   0.82478   0.81395   0.71517
Zn         Zn      0.68958   0.82478   0.18605   0.71508
Zn         Zn      0.81039   0.67521   0.68623   0.71557
Zn         Zn      0.18961   0.67521   0.31378   0.71560
H          H       0.91056   0.38959   0.24526   0.28458
H          H       0.75387   0.34230   0.22530   0.29197
H          H       0.86395   0.05155   0.11529   0.34038
H          H       0.83773   0.34144   0.83523   0.09365
H          H       0.59491   0.23279   0.98193   0.11111
H          H       0.61019   0.29830   0.87646   0.10955
H          H       0.04511   0.32014   0.90092   0.11160
H          H       0.08943   0.38959   0.75474   0.28463
H          H       0.24613   0.34230   0.77470   0.29197
H          H       0.13604   0.05155   0.88471   0.34045
H          H       0.16227   0.34144   0.16477   0.09383
H          H       0.40508   0.23279   0.01807   0.11104
H          H       0.38980   0.29830   0.12355   0.10958
H          H       0.95489   0.32014   0.09909   0.11182
H          H       0.41049   0.11039   0.25465   0.28417
H          H       0.25381   0.15774   0.27455   0.29200
H          H       0.36460   0.44844   0.38461   0.33973
H          H       0.33715   0.15875   0.66481   0.09398
H          H       0.09525   0.26760   0.51782   0.11088
H          H       0.10991   0.20193   0.62330   0.10951
H          H       0.54486   0.17953   0.59914   0.11099
H          H       0.58951   0.11039   0.74536   0.28425
H          H       0.74618   0.15774   0.72546   0.29188
H          H       0.63540   0.44844   0.61539   0.33972
H          H       0.66284   0.15875   0.33519   0.09390
H          H       0.90475   0.26760   0.48218   0.11086
H          H       0.89009   0.20193   0.37670   0.10944
H          H       0.45514   0.17953   0.40087   0.11106
H          H       0.08943   0.61041   0.75474   0.28441
H          H       0.24613   0.65771   0.77470   0.29190
H          H       0.13604   0.94846   0.88471   0.34045
H          H       0.16227   0.65856   0.16477   0.09371
H          H       0.40508   0.76721   0.01807   0.11108
H          H       0.38980   0.70171   0.12355   0.10952
H          H       0.95489   0.67986   0.09909   0.11172
H          H       0.91056   0.61041   0.24526   0.28447
H          H       0.75387   0.65771   0.22530   0.29199
H          H       0.86395   0.94846   0.11529   0.34032
H          H       0.83773   0.65856   0.83523   0.09362
H          H       0.59491   0.76721   0.98193   0.11113
H          H       0.61019   0.70171   0.87646   0.10949
H          H       0.04511   0.67986   0.90092   0.11156
H          H       0.58951   0.88961   0.74536   0.28432
H          H       0.74618   0.84226   0.72546   0.29184
H          H       0.63540   0.55156   0.61539   0.33980
H          H       0.66284   0.84126   0.33519   0.09397
H          H       0.90475   0.73241   0.48218   0.11080
H          H       0.89009   0.79808   0.37670   0.10944
H          H       0.45514   0.82047   0.40087   0.11115
H          H       0.41049   0.88961   0.25465   0.28424
H          H       0.25381   0.84226   0.27455   0.29201
H          H       0.36460   0.55156   0.38461   0.33982
H          H       0.33715   0.84126   0.66481   0.09403
H          H       0.09525   0.73241   0.51782   0.11079
H          H       0.10991   0.79808   0.62330   0.10953
H          H       0.54486   0.82047   0.59914   0.11105
C          C       0.80914   0.24074   0.00220  -0.05389
C          C       0.79270   0.20004   0.06537   0.56347
C          C       0.91696   0.27275   0.24509   0.48914
C          C       0.83011   0.31207   0.88127  -0.07307
C          C       0.93868   0.26521   0.97942   0.07635
C          C       0.69330   0.25226   0.96409  -0.09381
C          C       0.70251   0.28819   0.90422  -0.05766
C          C       0.94664   0.29981   0.91808  -0.11970
C          C       0.19085   0.24074   0.99780  -0.05373
C          C       0.20730   0.20004   0.93464   0.56351
C          C       0.08303   0.27275   0.75491   0.48920
C          C       0.16989   0.31207   0.11873  -0.07321
C          C       0.06132   0.26521   0.02058   0.07621
C          C       0.30670   0.25226   0.03591  -0.09401
C          C       0.29749   0.28819   0.09578  -0.05760
C          C       0.05336   0.29981   0.08192  -0.11958
C          C       0.30961   0.25927   0.49773  -0.05312
C          C       0.29495   0.30008   0.43451   0.56170
C          C       0.41700   0.22724   0.25477   0.48866
C          C       0.32975   0.18791   0.61867  -0.07337
C          C       0.43873   0.23448   0.52059   0.07536
C          C       0.19348   0.24790   0.53569  -0.09269
C          C       0.20235   0.21194   0.59558  -0.05834
C          C       0.44645   0.19989   0.58192  -0.11762
C          C       0.69039   0.25927   0.50228  -0.05288
C          C       0.70505   0.30008   0.56550   0.56122
C          C       0.58300   0.22724   0.74523   0.48884
C          C       0.67024   0.18791   0.38133  -0.07343
C          C       0.56127   0.23448   0.47942   0.07526
C          C       0.80651   0.24790   0.46432  -0.09268
C          C       0.79765   0.21194   0.40442  -0.05849
C          C       0.55355   0.19989   0.41808  -0.11776
C          C       0.19085   0.75927   0.99780  -0.05381
C          C       0.20730   0.79997   0.93464   0.56346
C          C       0.08303   0.72725   0.75491   0.48907
C          C       0.16989   0.68793   0.11873  -0.07310
C          C       0.06132   0.73480   0.02058   0.07639
C          C       0.30670   0.74774   0.03591  -0.09396
C          C       0.29749   0.71181   0.09578  -0.05756
C          C       0.05336   0.70020   0.08192  -0.11970
C          C       0.80914   0.75927   0.00220  -0.05372
C          C       0.79270   0.79997   0.06537   0.56333
C          C       0.91696   0.72725   0.24509   0.48907
C          C       0.83011   0.68793   0.88127  -0.07317
C          C       0.93868   0.73480   0.97942   0.07623
C          C       0.69330   0.74774   0.96409  -0.09378
C          C       0.70251   0.71181   0.90422  -0.05758
C          C       0.94664   0.70020   0.91808  -0.11975
C          C       0.69039   0.74073   0.50228  -0.05303
C          C       0.70505   0.69993   0.56550   0.56139
C          C       0.58300   0.77276   0.74523   0.48884
C          C       0.67024   0.81210   0.38133  -0.07338
C          C       0.56127   0.76552   0.47942   0.07529
C          C       0.80651   0.75210   0.46432  -0.09264
C          C       0.79765   0.78807   0.40442  -0.05849
C          C       0.55355   0.80012   0.41808  -0.11780
C          C       0.30961   0.74073   0.49773  -0.05314
C          C       0.29495   0.69993   0.43451   0.56179
C          C       0.41700   0.77276   0.25477   0.48887
C          C       0.32975   0.81210   0.61867  -0.07331
C          C       0.43873   0.76552   0.52059   0.07537
C          C       0.19348   0.75210   0.53569  -0.09271
C          C       0.20235   0.78807   0.59558  -0.05830
C          C       0.44645   0.80012   0.58192  -0.11761
C          C       0.72103   0.00000   0.17128   0.50439
C          C       0.27897   0.00000   0.82872   0.50418
C          C       0.22114   0.50000   0.32872   0.50412
C          C       0.77886   0.50000   0.67128   0.50409
N          N       0.65368   0.06311   0.19336  -0.31044
N          N       0.95555   0.14933   0.24905  -0.05014
N          N       0.85825   0.34065   0.23237  -0.57888
N          N       0.54604   0.03734   0.22842  -0.05393
N          N       0.06289   0.18438   0.27198  -0.05488
N          N       0.04251   0.26180   0.27067  -0.32571
N          N       0.86197   0.20292   0.23206  -0.31110
N          N       0.34631   0.06311   0.80664  -0.31025
N          N       0.04445   0.14933   0.75096  -0.04996
N          N       0.14175   0.34065   0.76763  -0.57889
N          N       0.45396   0.03734   0.77159  -0.05428
N          N       0.93711   0.18438   0.72802  -0.05484
N          N       0.95749   0.26180   0.72933  -0.32581
N          N       0.13803   0.20292   0.76794  -0.31136
N          N       0.15391   0.43690   0.30654  -0.31104
N          N       0.45547   0.35066   0.25073  -0.05002
N          N       0.35820   0.15936   0.26750  -0.57793
N          N       0.04642   0.46267   0.27136  -0.05425
N          N       0.56298   0.31561   0.22797  -0.05479
N          N       0.54269   0.23819   0.22935  -0.32509
N          N       0.36184   0.29708   0.26763  -0.31101
N          N       0.84609   0.43690   0.69346  -0.31107
N          N       0.54453   0.35066   0.74927  -0.05011
N          N       0.64180   0.15936   0.73251  -0.57802
N          N       0.95357   0.46267   0.72865  -0.05435
N          N       0.43701   0.31561   0.77203  -0.05451
N          N       0.45731   0.23819   0.77065  -0.32492
N          N       0.63816   0.29708   0.73237  -0.31136
N          N       0.34631   0.93689   0.80664  -0.31013
N          N       0.04445   0.85067   0.75096  -0.04964
N          N       0.14175   0.65935   0.76763  -0.57881
N          N       0.45396   0.96266   0.77159  -0.05441
N          N       0.93711   0.81562   0.72802  -0.05476
N          N       0.95749   0.73821   0.72933  -0.32588
N          N       0.13803   0.79709   0.76794  -0.31145
N          N       0.65368   0.93689   0.19336  -0.31042
N          N       0.95555   0.85067   0.24905  -0.04970
N          N       0.85825   0.65935   0.23237  -0.57894
N          N       0.54604   0.96266   0.22842  -0.05406
N          N       0.06289   0.81562   0.27198  -0.05474
N          N       0.04251   0.73821   0.27067  -0.32598
N          N       0.86197   0.79709   0.23206  -0.31121
N          N       0.84609   0.56311   0.69346  -0.31104
N          N       0.54453   0.64935   0.74927  -0.05060
N          N       0.64180   0.84064   0.73251  -0.57789
N          N       0.95357   0.53733   0.72865  -0.05390
N          N       0.43701   0.68440   0.77203  -0.05448
N          N       0.45731   0.76181   0.77065  -0.32484
N          N       0.63816   0.70293   0.73237  -0.31118
N          N       0.15391   0.56311   0.30654  -0.31101
N          N       0.45547   0.64935   0.25073  -0.05048
N          N       0.35820   0.84064   0.26750  -0.57789
N          N       0.04642   0.53733   0.27136  -0.05411
N          N       0.56298   0.68440   0.22797  -0.05476
N          N       0.54269   0.76181   0.22935  -0.32497
N          N       0.36184   0.70293   0.26763  -0.31105
N          N       0.83272   0.00000   0.13469  -0.59327
N          N       0.16728   0.00000   0.86532  -0.59309
N          N       0.33250   0.50000   0.36554  -0.59328
N          N       0.66749   0.50000   0.63446  -0.59329
O          O       0.69062   0.22316   0.10031  -0.54207
O          O       0.87358   0.14765   0.08099  -0.51787
O          O       0.30937   0.22316   0.89970  -0.54229
O          O       0.12642   0.14765   0.91901  -0.51783
O          O       0.19244   0.27752   0.39956  -0.54235
O          O       0.37762   0.35165   0.41896  -0.51556
O          O       0.80755   0.27752   0.60044  -0.54230
O          O       0.62238   0.35165   0.58104  -0.51520
O          O       0.30937   0.77684   0.89970  -0.54238
O          O       0.12642   0.85235   0.91901  -0.51765
O          O       0.69062   0.77684   0.10031  -0.54214
O          O       0.87358   0.85235   0.08099  -0.51767
O          O       0.80755   0.72248   0.60044  -0.54219
O          O       0.62238   0.64835   0.58104  -0.51547
O          O       0.19244   0.72248   0.39956  -0.54222
O          O       0.37762   0.64835   0.41896  -0.51580

