data_crystal

_audit_creation_method 'AiiDA-DDEC plugin'

_cell_length_a        11.06132
_cell_length_b        13.76022
_cell_length_c        19.34205

_cell_angle_alpha     89.94021
_cell_angle_beta     102.69328
_cell_angle_gamma     89.98242

_symmetry_space_group_name_Hall 'P 1'
_symmetry_space_group_name_H-M  'P 1'

loop_
_symmetry_equiv_pos_as_xyz
 'x,y,z'

loop_
_atom_site_label
_atom_site_type_symbol
_atom_site_fract_x
_atom_site_fract_y
_atom_site_fract_z
_atom_site_charge
Ho         Ho      0.14547   0.56911   0.06608   2.01192
Ho         Ho      0.85160   0.43097   0.93390   2.01290
Ho         Ho      0.15136   0.93076   0.56613   2.00943
Ho         Ho      0.85440   0.06782   0.43380   2.00977
Cu         Cu      0.75944   0.55684   0.27591   0.80700
Cu         Cu      0.75993   0.93855   0.77653   0.80487
Cu         Cu      0.24093   0.05697   0.22235   0.80349
Cu         Cu      0.24265   0.43854   0.72256   0.80685
H          H       0.23530   0.26424   0.94626   0.17841
H          H       0.76743   0.74525   0.05271   0.17647
H          H       0.12562   0.75290   0.71773   0.12392
H          H       0.77277   0.75905   0.55648   0.17650
H          H       0.88032   0.24478   0.28425   0.12462
H          H       0.77620   0.74222   0.83482   0.11258
H          H       0.21925   0.87813   0.13150   0.12012
H          H       0.71684   0.63325   0.08424   0.20010
H          H       0.49092   0.99531   0.29302   0.11414
H          H       0.77753   0.75242   0.33750   0.11376
H          H       0.30408   0.14633   0.50738   0.17803
H          H       0.22103   0.61716   0.63126   0.12160
H          H       0.22615   0.24324   0.66382   0.11271
H          H       0.30386   0.35801   0.00687   0.17962
H          H       0.78225   0.11865   0.86757   0.11737
H          H       0.78194   0.37601   0.36607   0.11653
H          H       0.22374   0.25245   0.16225   0.11246
H          H       0.50773   0.49616   0.20701   0.11334
H          H       0.98653   0.60260   0.21874   0.11527
H          H       0.49385   0.49889   0.79187   0.11275
H          H       0.72283   0.87285   0.58614   0.19789
H          H       0.99070   0.89600   0.72161   0.11502
H          H       0.69349   0.65342   0.99172   0.17971
H          H       0.01079   0.39585   0.77700   0.11469
H          H       0.01360   0.10103   0.27932   0.11516
H          H       0.11843   0.74725   0.21343   0.12231
H          H       0.37850   0.34786   0.19999   0.13315
H          H       0.27813   0.37883   0.91425   0.19992
H          H       0.51007  -0.00065   0.70742   0.11198
H          H       0.23440   0.23922   0.44586   0.17852
H          H       0.38083   0.14818   0.69960   0.13324
H          H       0.62204   0.64792   0.79945   0.13327
H          H       0.61964   0.84620   0.30024   0.13379
H          H       0.69863   0.84924   0.49400   0.18031
H          H       0.87624   0.25257   0.78043   0.12481
H          H       0.28285   0.12636   0.41482   0.20240
C          C       0.95440   0.24653   0.75501  -0.14535
C          C       0.14775   0.25376   0.18939   0.08007
C          C       0.69116   0.36762   0.33096   0.06993
C          C       0.46083   0.93389   0.25806   0.11486
C          C       0.48997   0.77196   0.21653   0.03232
C          C       0.88471   0.88181   0.54405   0.76706
C          C       0.02390   0.65875   0.77449   0.05082
C          C       0.88941   0.07542   0.72396   0.55729
C          C       0.53198   0.84988   0.26169  -0.13691
C          C       0.46681   0.35069   0.23807  -0.13880
C          C       0.31142   0.62623   0.66667   0.06065
C          C       0.12079   0.07151   0.65559   0.56992
C          C       0.69216   0.12763   0.83183   0.06803
C          C       0.10767   0.92344   0.27355   0.55501
C          C       0.04771   0.74667   0.74334  -0.14234
C          C       0.87969   0.62134   0.04341   0.77162
C          C       0.50919   0.27190   0.28250   0.03543
C          C       0.11542   0.38233   0.95645   0.76892
C          C       0.03041   0.16923   0.25476   0.11676
C          C       0.51133   0.22406   0.78216   0.03438
C          C       0.43056   0.31294   0.78188   0.55487
C          C       0.11373   0.57570   0.77555   0.55796
C          C       0.04272   0.75199   0.24087  -0.14306
C          C       0.02870   0.32744   0.75313   0.11657
C          C       0.46350   0.56050   0.75705   0.11575
C          C       0.97311   0.82737   0.74537   0.11241
C          C       0.68726   0.29816   0.87382   0.58629
C          C       0.92044   0.83922   0.30819  -0.10111
C          C       0.53448   0.64458   0.76079  -0.13623
C          C       0.11758   0.42503   0.15461   0.56995
C          C       0.53986   0.06111   0.74211   0.11610
C          C       0.62638   0.21454   0.83034  -0.07549
C          C       0.07929   0.33865   0.19059  -0.09945
C          C       0.57069   0.68350   0.21562   0.55699
C          C       0.75741   0.66708   0.04284  -0.54375
C          C       0.08061   0.15738   0.69105  -0.10213
C          C       0.88082   0.92537   0.34376   0.57083
C          C       0.88283   0.57044   0.84292   0.56864
C          C       0.37551   0.78216   0.16794  -0.07417
C          C       0.30933   0.86873   0.16720   0.06661
C          C       0.97956   0.33766   0.22516   0.05101
C          C       0.96949   0.67058   0.24349   0.11287
C          C       0.31513   0.69941   0.12333   0.58141
C          C       0.68610   0.19884   0.37517   0.58125
C          C       0.76274   0.83696   0.54535  -0.54111
C          C       0.53846   0.43431   0.24151   0.11515
C          C       0.62447   0.28133   0.33055  -0.07602
C          C       0.24201   0.16090   0.45578  -0.54516
C          C       0.24046   0.34261   0.95585  -0.54385
C          C       0.46870   0.14516   0.73804  -0.13862
C          C       0.01995   0.83898   0.27344   0.05362
C          C       0.95651   0.25027   0.25723  -0.14330
C          C       0.14911   0.24226   0.69012   0.07962
C          C       0.97897   0.15861   0.72417   0.05324
C          C       0.11802   0.11765   0.45398   0.76698
C          C       0.57110   0.81271   0.71634   0.55514
C          C       0.31598   0.79635   0.62410   0.58223
C          C       0.85329   0.74156   0.80852   0.07903
C          C       0.37742   0.71280   0.66754  -0.06976
C          C       0.89118   0.42161   0.22461   0.55807
C          C       0.85281   0.75396   0.30976   0.07901
C          C       0.42745   0.18377   0.28240   0.55521
C          C       0.92240   0.65690   0.80759  -0.10060
C          C       0.49192   0.72301   0.71612   0.03086
N          N       0.87460   0.67162   0.27730  -0.24074
N          N       0.64981   0.44234   0.28678  -0.23611
N          N       0.35292   0.55188   0.71121  -0.23658
N          N       0.87596   0.82478   0.77738  -0.24271
N          N       0.65052   0.05272   0.78798  -0.23656
N          N       0.12610   0.32520   0.72134  -0.24424
N          N       0.35051   0.94281   0.21193  -0.23630
N          N       0.12593   0.17110   0.22151  -0.24271
O          O       0.93215   0.48710   0.83929  -0.59372
O          O       0.31011   0.87739   0.65623  -0.63418
O          O       0.90305   0.46626   0.28480  -0.55827
O          O       0.80006   0.58115   0.87980  -0.63597
O          O       0.10338   0.47325   0.97235  -0.79730
O          O       0.07228   0.98808   0.65996  -0.59377
O          O       0.62451   0.84368   0.77895  -0.56234
O          O       0.25989   0.78566   0.55923  -0.62265
O          O       0.98008   0.66939   0.06252  -0.65019
O          O       0.41148   0.15230   0.34001  -0.53272
O          O       0.81146   0.43794   0.16986  -0.52573
O          O       0.41802   0.34727   0.83939  -0.53412
O          O       0.68339   0.11400   0.34737  -0.62735
O          O       0.92642   0.00940   0.33717  -0.59825
O          O       0.62371   0.65082   0.27791  -0.56600
O          O       0.80694   0.06164   0.67002  -0.52204
O          O       0.88484   0.53082   0.02542  -0.78909
O          O       0.10912   0.02742   0.47234  -0.79506
O          O       0.75157   0.21450   0.43766  -0.62825
O          O       0.74645   0.28554   0.93804  -0.62835
O          O       0.20268   0.08225   0.61804  -0.63947
O          O       0.01891   0.32948   0.94057  -0.64118
O          O       0.98436   0.83215   0.55926  -0.64796
O          O       0.25282   0.71405   0.06000  -0.62466
O          O       0.09712   0.96583   0.21248  -0.55730
O          O       0.89032   0.97309   0.52821  -0.78704
O          O       0.10168   0.53016   0.71564  -0.56144
O          O       0.19429   0.56149   0.83023  -0.52150
O          O       0.90310   0.02944   0.78388  -0.55875
O          O       0.06918   0.50849   0.16002  -0.60298
O          O       0.18563   0.94241   0.32858  -0.52488
O          O       0.68929   0.38087   0.84337  -0.63123
O          O       0.58225   0.84762   0.65876  -0.53387
O          O       0.80161   0.91423   0.38283  -0.63736
O          O       0.37678   0.15117   0.21974  -0.56247
O          O       0.37674   0.34353   0.71911  -0.56231
O          O       0.01934   0.16718   0.43382  -0.64243
O          O       0.31543   0.61525   0.15238  -0.63182
O          O       0.58314   0.65180   0.15743  -0.53101
O          O       0.19776   0.41470   0.11606  -0.63527

