data_crystal

_audit_creation_method 'AiiDA-DDEC plugin'

_cell_length_a         9.39596
_cell_length_b        19.07598
_cell_length_c        19.07463

_cell_angle_alpha     117.30732
_cell_angle_beta     99.50361
_cell_angle_gamma     99.49272

_symmetry_space_group_name_Hall 'P 1'
_symmetry_space_group_name_H-M  'P 1'

loop_
_symmetry_equiv_pos_as_xyz
 'x,y,z'

loop_
_atom_site_label
_atom_site_type_symbol
_atom_site_fract_x
_atom_site_fract_y
_atom_site_fract_z
_atom_site_charge
Co         Co      0.49754   0.49945   0.49888   0.68970
Co         Co     -0.00005  -0.00006   0.49990   0.69394
Co         Co     -0.00084   0.50020  -0.00021   0.69141
H          H       0.09300   0.34138   0.57527   0.12716
H          H       0.06849   0.49631   0.64748   0.11660
H          H       0.66601   0.22754   0.34717   0.12349
H          H       0.43648   0.18600   0.40041   0.12053
H          H       0.03495   0.41942   0.43122   0.11827
H          H       0.18145   0.33669   0.34495   0.08168
H          H       0.80639   0.19850   0.14599   0.08550
H          H       0.64120   0.27265   0.22553   0.12095
H          H       0.43581   0.26145   0.57840   0.12768
H          H       0.31553   0.13260   0.57590   0.08900
H          H       0.93672   0.08400   0.39778   0.08406
H          H       0.04185   0.21041   0.39223   0.12942
H          H       0.90687   0.65854   0.42519   0.12689
H          H       0.93100   0.50343   0.35275   0.11757
H          H       0.33345   0.77231   0.65304   0.12299
H          H       0.56345   0.81385   0.60004   0.12048
H          H       0.96325   0.58054   0.56861   0.11831
H          H       0.81744   0.66340   0.65535   0.08104
H          H       0.19352   0.80125   0.85374   0.08565
H          H       0.35792   0.72697   0.77366   0.12134
H          H       0.56311   0.73846   0.42137   0.12736
H          H       0.68365   0.86739   0.42413   0.08890
H          H       0.06225   0.91568   0.60214   0.08464
H          H       0.95714   0.78917   0.60744   0.12946
H          H       0.75128   0.23334   0.65810   0.12759
H          H       0.57146   0.15017   0.50301   0.11551
H          H       0.43970   0.11969   0.77245   0.12363
H          H       0.25123   0.21412   0.81390   0.12006
H          H       0.61752   0.01205   0.58089   0.11811
H          H       0.84637   0.00811   0.66378   0.08084
H          H       0.60930   0.94821   0.80199   0.08537
H          H       0.37005   0.95380   0.72765   0.12034
H          H       0.17582   0.31736   0.73951   0.12754
H          H       0.18377   0.44339   0.86823   0.08932
H          H       0.85246   0.31330   0.91568   0.08396
H          H       0.83162   0.18156   0.78933   0.12996
H          H       0.24844   0.76666   0.34139   0.12749
H          H       0.42856   0.84961   0.49647   0.11579
H          H       0.56033   0.88018   0.22705   0.12306
H          H       0.74881   0.78589   0.18562   0.12048
H          H       0.38182   0.98782   0.41899   0.11793
H          H       0.15315   0.99193   0.33610   0.08055
H          H       0.39066   0.05192   0.19813   0.08538
H          H       0.62967   0.04601   0.27240   0.12086
H          H       0.82430   0.68254   0.26059   0.12758
H          H       0.81605   0.55660   0.13163   0.08887
H          H       0.14747   0.68702   0.08446   0.08342
H          H       0.16780   0.81854   0.21097   0.12959
H          H       0.51764   0.42471   0.76589   0.12611
H          H       0.42037   0.35236   0.84862   0.11558
H          H       0.31916   0.65327   0.88011   0.12393
H          H       0.03611   0.59970   0.78531   0.12010
H          H       0.60511   0.56902   0.98801   0.11711
H          H       0.83837   0.65573   0.99208   0.08122
H          H       0.66222   0.85430   0.05258   0.08629
H          H       0.41687   0.77434   0.04655   0.12053
H          H       0.85684   0.42147   0.68240   0.12655
H          H       0.73889   0.42441   0.55628   0.08874
H          H       0.53866   0.60217   0.68626   0.08394
H          H       0.64969   0.60734   0.81804   0.13028
H          H       0.48206   0.57517   0.23334   0.12672
H          H       0.57872   0.64748   0.15043   0.11546
H          H       0.67965   0.34658   0.11895   0.12409
H          H       0.96277   0.40011   0.21382   0.12019
H          H       0.39436   0.43074   0.01137   0.11681
H          H       0.16157   0.34418   0.00781   0.08097
H          H       0.33779   0.14591   0.94772   0.08626
H          H       0.58255   0.22560   0.95301   0.12063
H          H       0.14131   0.57792   0.31644   0.12693
H          H       0.25890   0.57498   0.44267   0.08855
H          H       0.45955   0.39752   0.31312   0.08416
H          H       0.34933   0.39247   0.18130   0.13019
C          C       0.73570   0.60897   0.47293   0.16809
C          C       0.15138   0.39281   0.57127  -0.18650
C          C       0.13796   0.47125   0.60735  -0.19100
C          C       0.24069   0.51725   0.58455   0.17836
C          C       0.26814   0.60215   0.61339  -0.08870
C          C       0.38069   0.64860   0.59896   0.17310
C          C       0.59846   0.26590   0.37850  -0.19466
C          C       0.48300   0.24511   0.40670  -0.17782
C          C       0.43114   0.31742   0.44629   0.16910
C          C       0.68280   0.67769   0.51431  -0.08057
C          C       0.82437   0.35272   0.33568   0.11529
C          C       0.97955   0.37108   0.36822  -0.19456
C          C       0.06165   0.32453   0.31945   0.08392
C          C       0.85321   0.24720   0.20986   0.08081
C          C       0.76095   0.28897   0.25405  -0.20137
C          C       0.75177   0.75341   0.51396   0.13233
C          C       0.67414   0.77647   0.46231  -0.19409
C          C       0.74088   0.84797   0.46363   0.09274
C          C       0.04638   0.12519   0.43722   0.10074
C          C       0.10483   0.19543   0.43431  -0.17598
C          C       0.26261   0.39060   0.52653   0.16888
C          C       0.84762   0.60691   0.42861  -0.18481
C          C       0.86081   0.52844   0.39244  -0.19260
C          C       0.75724   0.48233   0.41478   0.17789
C          C       0.72982   0.39740   0.38586  -0.08701
C          C       0.61720   0.35091   0.40019   0.17402
C          C       0.40028   0.73378   0.62117  -0.19501
C          C       0.51592   0.75455   0.59307  -0.17663
C          C       0.56702   0.68206   0.55302   0.16646
C          C       0.31569   0.32192   0.48521  -0.08065
C          C       0.17413   0.64700   0.66384   0.11840
C          C       0.01893   0.62882   0.63158  -0.19657
C          C       0.93728   0.67546   0.68062   0.08653
C          C       0.14625   0.75260   0.78988   0.08184
C          C       0.23808   0.71074   0.74542  -0.20272
C          C       0.24711   0.24624   0.48571   0.13283
C          C       0.32487   0.22332   0.53745  -0.19355
C          C       0.25818   0.15192   0.53634   0.09271
C          C       0.95255   0.87451   0.56266   0.09901
C          C       0.89414   0.80416   0.56539  -0.17492
C          C       0.12691   0.86395   0.39089   0.16710
C          C       0.75871   0.17808   0.60675  -0.18658
C          C       0.66648   0.13551   0.52829  -0.18997
C          C       0.72331   0.06686   0.48231   0.17863
C          C       0.66537   0.01075   0.39737  -0.08922
C          C       0.73158   0.95002   0.35083   0.17488
C          C       0.33371   0.11278   0.73406  -0.19729
C          C       0.23871   0.16152   0.75473  -0.17672
C          C       0.11442   0.12879   0.68232   0.16803
C          C       0.00499   0.83650   0.32208  -0.08040
C          C       0.47323   0.98342   0.64745   0.11636
C          C       0.61016   0.99743   0.62922  -0.19425
C          C       0.73872   0.99501   0.67588   0.08484
C          C       0.60752   0.96318   0.75320   0.07970
C          C       0.47352   0.96573   0.71133  -0.19862
C          C      -0.00170   0.76048   0.24629   0.13235
C          C       0.89749   0.68564   0.22282  -0.19345
C          C       0.89287   0.61560   0.15131   0.09251
C          C       0.92120   0.31165   0.87463   0.10245
C          C       0.90968   0.23864   0.80440  -0.17831
C          C       0.87251   0.13575   0.60902   0.16727
C          C       0.24105   0.82178   0.39291  -0.18599
C          C       0.33327   0.86422   0.47138  -0.18970
C          C       0.27614   0.93266   0.51759   0.17856
C          C       0.33383   0.98877   0.60254  -0.08802
C          C       0.26758   0.04955   0.64897   0.17552
C          C       0.66589   0.88694   0.26564  -0.19630
C          C       0.76092   0.83822   0.24494  -0.17764
C          C       0.88484   0.87086   0.31754   0.16948
C          C       0.99430   0.16322   0.67790  -0.08030
C          C       0.52621   0.01636   0.35252   0.11841
C          C       0.38922   0.00245   0.37066  -0.19480
C          C       0.26081   0.00495   0.32399   0.08482
C          C       0.39231   0.03679   0.24681   0.07937
C          C       0.52618   0.03411   0.28869  -0.20019
C          C       0.00134   0.23938   0.75373   0.13310
C          C       0.10242   0.31419   0.77718  -0.19334
C          C       0.10692   0.38437   0.84855   0.09147
C          C       0.07855   0.68845   0.12535   0.10290
C          C       0.08998   0.76136   0.19572  -0.17692
C          C       0.26300   0.52692   0.13559   0.16709
C          C       0.57989   0.42866   0.82132  -0.18491
C          C       0.53009   0.39249   0.86362  -0.18957
C          C       0.65582   0.41495   0.93227   0.17863
C          C       0.65422   0.38594   0.98821  -0.09021
C          C       0.78133   0.40042   0.04916   0.17547
C          C       0.22032   0.62167   0.88708  -0.19746
C          C       0.07648   0.59336   0.83812  -0.17622
C          C       0.98523   0.55340   0.87072   0.16812
C          C       0.16858   0.48545   0.16289  -0.08083
C          C       0.48997   0.66436   0.01669   0.11846
C          C       0.61270   0.63202   0.00268  -0.19307
C          C       0.74392   0.68102   0.00516   0.08385
C          C       0.64504   0.79039   0.03726   0.07802
C          C       0.50820   0.74599   0.03453  -0.19970
C          C       0.23780   0.48578   0.23897   0.13409
C          C       0.21139   0.53708   0.31356  -0.19339
C          C       0.27651   0.53566   0.38373   0.09191
C          C       0.60896   0.56274   0.68786   0.09859
C          C       0.67038   0.56543   0.76092  -0.17705
C          C       0.73619   0.47311   0.86371   0.16645
C          C       0.41927   0.57157   0.17819  -0.18530
C          C       0.46891   0.60763   0.13577  -0.18882
C          C       0.34327   0.58503   0.06705   0.17706
C          C       0.34498   0.61401   0.01107  -0.09051
C          C       0.21775   0.59963   0.95024   0.17590
C          C       0.77858   0.37854   0.11237  -0.19777
C          C       0.92242   0.40691   0.16135  -0.17580
C          C       0.01382   0.44665   0.12863   0.16710
C          C       0.83064   0.51440   0.83627  -0.08183
C          C       0.50951   0.33554   0.98272   0.11756
C          C       0.38681   0.36781   0.99684  -0.19214
C          C       0.25590   0.31889   0.99468   0.08323
C          C       0.35485   0.20970   0.96277   0.07878
C          C       0.49134   0.25400   0.96510  -0.20011
C          C       0.76119   0.51399   0.76013   0.13398
C          C       0.78693   0.46246   0.68541  -0.19280
C          C       0.72137   0.46382   0.61525   0.09040
C          C       0.38929   0.43689   0.31136   0.09870
C          C       0.32842   0.43433   0.23834  -0.17609
N          N       0.68400   0.53299   0.46470  -0.37946
N          N       0.48450   0.61869   0.55820  -0.37776
N          N       0.00166   0.26330   0.24136  -0.28207
N          N       0.87863   0.89644   0.51253  -0.23895
N          N       0.31356   0.46648   0.53439  -0.37960
N          N       0.51295   0.38067   0.44067  -0.38144
N          N      -0.00228   0.73664   0.75870  -0.28371
N          N       0.12035   0.10346   0.48756  -0.23943
N          N       0.15170   0.93173   0.46687  -0.38019
N          N       0.86577   0.93943   0.38080  -0.38092
N          N       0.73998   0.97824   0.73716  -0.28277
N          N       0.98263   0.61628   0.10322  -0.23985
N          N       0.84757   0.06777   0.53312  -0.37937
N          N       0.13330   0.06014   0.61907  -0.38141
N          N       0.25980   0.02187   0.26280  -0.28239
N          N       0.01680   0.38380   0.89651  -0.23969
N          N       0.21987   0.53494   0.06766  -0.37957
N          N       0.92611   0.44110   0.05989  -0.37898
N          N       0.76217   0.75917   0.02215  -0.28200
N          N       0.36563   0.48700   0.38337  -0.23604
N          N       0.77930   0.46494   0.93156  -0.37841
N          N       0.07297   0.55879   0.93942  -0.37925
N          N       0.23771   0.24086   0.97798  -0.28183
N          N       0.63244   0.51264   0.61578  -0.23634

