data_crystal

_audit_creation_method 'AiiDA-DDEC plugin'

_cell_length_a        14.68858
_cell_length_b        15.33027
_cell_length_c        16.26894

_cell_angle_alpha     71.55700
_cell_angle_beta     64.43714
_cell_angle_gamma     65.39975

_symmetry_space_group_name_Hall 'P 1'
_symmetry_space_group_name_H-M  'P 1'

loop_
_symmetry_equiv_pos_as_xyz
 'x,y,z'

loop_
_atom_site_label
_atom_site_type_symbol
_atom_site_fract_x
_atom_site_fract_y
_atom_site_fract_z
_atom_site_charge
Zn         Zn      0.70163   0.10318   0.15896   0.82280
Zn         Zn      0.20439  -0.00098   0.38736   0.72302
Zn         Zn      0.31707   0.09401   0.48263   0.72557
Zn         Zn      0.83575   0.34574   0.35769   0.77495
Zn         Zn      0.29836   0.89685   0.84104   0.82295
Zn         Zn      0.79561   0.00100   0.61264   0.72296
Zn         Zn      0.68294   0.90598   0.51738   0.72562
Zn         Zn      0.16418   0.65422   0.64227   0.77467
H          H       0.29299   0.03125   0.67837   0.08690
H          H       0.21685   0.29206   0.52748   0.08751
H          H      -0.00008   0.13340   0.36009   0.10517
H          H       0.30573   0.94981   0.20194   0.08459
H          H       0.52273   0.12564   0.35232   0.10378
H          H       0.01452   0.83938   0.38240   0.08605
H          H       0.97725   0.00345   0.28206   0.09003
H          H       0.93767   0.91841   0.26475   0.08059
H          H       0.02327   0.00844   0.11349   0.09184
H          H       0.14057   0.97163   0.13884   0.09230
H          H       0.04623   0.83073   0.13101   0.09818
H          H       0.25603   0.79451   0.15445   0.09200
H          H       0.21991   0.70470   0.14106   0.09342
H          H       0.06230   0.72858   0.28417   0.08814
H          H       0.17783   0.70405   0.30836   0.10917
H          H       0.55321   0.13179   0.56349   0.07027
H          H       0.43026   0.18018   0.72067   0.08185
H          H       0.53384   0.23199   0.65893   0.09810
H          H       0.36660   0.35882   0.72888   0.09691
H          H       0.29736   0.33348   0.67825   0.09428
H          H       0.48557   0.41169   0.57409   0.09814
H          H       0.44759   0.42798   0.43251   0.10222
H          H       0.34668   0.37471   0.50074   0.08076
H          H       0.52018   0.25059   0.42419   0.07794
H          H       0.58493   0.28084   0.47546   0.09278
H          H       0.92321   0.56304   0.11167   0.09483
H          H       0.80691   0.51253   0.07280   0.09367
H          H       0.91631   0.41052   0.03211   0.09001
H          H       0.09740   0.37535   0.04899   0.08789
H          H       0.10699   0.45498   0.10106   0.09330
H          H       0.18832   0.77344   0.86614   0.31896
H          H       0.17561   0.71063   0.79942   0.34539
H          H       0.91902   0.51670   0.48292   0.28186
H          H       0.85782   0.45934   0.45099   0.32823
H          H       0.58068   0.02741   0.97773   0.28847
H          H       0.64625   0.06642   0.02313   0.31530
H          H       0.70703   0.96875   0.32164   0.08674
H          H       0.78314   0.70795   0.47257   0.08748
H          H       0.00011   0.86656   0.63997   0.10542
H          H       0.69428   0.05018   0.79811   0.08469
H          H       0.47730   0.87438   0.64768   0.10344
H          H       0.98548   0.16061   0.61760   0.08615
H          H       0.02276   0.99654   0.71794   0.09001
H          H       0.06234   0.08156   0.73525   0.08093
H          H       0.97674   0.99156   0.88652   0.09201
H          H       0.85945   0.02835   0.86117   0.09204
H          H       0.95378   0.16926   0.86901   0.09851
H          H       0.74398   0.20548   0.84555   0.09184
H          H       0.78010   0.29529   0.85895   0.09349
H          H       0.93771   0.27142   0.71583   0.08850
H          H       0.82217   0.29595   0.69164   0.10900
H          H       0.44677   0.86829   0.43651   0.07065
H          H       0.56972   0.81991   0.27928   0.08214
H          H       0.46605   0.76812   0.34109   0.09785
H          H       0.63333   0.64130   0.27110   0.09673
H          H       0.70253   0.66659   0.32177   0.09437
H          H       0.51425   0.58849   0.42597   0.09820
H          H       0.55238   0.57213   0.56750   0.10167
H          H       0.65327   0.62538   0.49926   0.08116
H          H       0.47982   0.74952   0.57581   0.07791
H          H       0.41503   0.71924   0.52453   0.09250
H          H       0.07678   0.43693   0.88838   0.09501
H          H       0.19307   0.48742   0.92732   0.09362
H          H       0.08364   0.58940   0.96802   0.08996
H          H       0.90254   0.62459   0.95113   0.08782
H          H       0.89297   0.54497   0.89906   0.09315
H          H       0.81170   0.22654   0.13386   0.31877
H          H       0.82435   0.28939   0.20057   0.34552
H          H       0.08096   0.48325   0.51716   0.28206
H          H       0.14215   0.54061   0.54907   0.32857
H          H       0.41932   0.97258   0.02230   0.28856
H          H       0.35377   0.93357   0.97688   0.31496
C          C       0.27474   0.97420   0.66748   0.20921
C          C       0.24651   0.91430   0.57284   0.29856
C          C       0.22831   0.83405   0.64154  -0.02389
C          C       0.22913   0.82772   0.72961   0.41095
C          C       0.21291   0.82364   0.51919   0.16489
C          C       0.16096   0.29092   0.50074   0.23105
C          C       0.11095   0.20787   0.44306   0.28056
C          C       0.02037   0.28919   0.43811  -0.03320
C          C       0.00292   0.37455   0.46728   0.40711
C          C       0.02110   0.17414   0.38861   0.18180
C          C       0.36055   0.98135   0.20061   0.24485
C          C       0.41343   0.03955   0.27839   0.29348
C          C       0.50158   0.05053   0.19906  -0.04088
C          C       0.51286   0.02831   0.11606   0.40599
C          C       0.50180   0.09757   0.31193   0.18350
C          C       0.07139   0.85268   0.31206  -0.09846
C          C       0.00748   0.93578   0.25506  -0.17126
C          C       0.07275   0.94962   0.15136  -0.16336
C          C       0.11456   0.85334   0.11568  -0.11361
C          C       0.18761   0.77325   0.16741  -0.15690
C          C       0.12460   0.75807   0.27166  -0.16918
C          C       0.15006   0.88135   0.32835   0.56389
C          C       0.16913   0.86083   0.01222   0.59627
C          C       0.48205   0.19765   0.57172  -0.10870
C          C       0.45835   0.23220   0.65994  -0.17066
C          C       0.37590   0.33450   0.66821  -0.16243
C          C       0.40897   0.40877   0.58067  -0.10627
C          C       0.42370   0.37572   0.49489  -0.16598
C          C       0.50874   0.27484   0.48558  -0.17014
C          C       0.39581   0.16280   0.57692   0.58565
C          C       0.32769   0.50886   0.59554   0.58446
C          C       0.94782   0.48792   0.10133  -0.10974
C          C       0.89421   0.48623   0.03942  -0.16815
C          C       0.07069   0.45203   0.05583  -0.16496
C          C       0.91495   0.42929   0.19667   0.58992
C          C       0.72528   0.02581   0.33253   0.20884
C          C       0.75345   0.08573   0.42719   0.29896
C          C       0.77163   0.16598   0.35848  -0.02406
C          C       0.77085   0.17230   0.27041   0.41118
C          C       0.78696   0.17644   0.48086   0.16520
C          C       0.83903   0.70908   0.49931   0.23055
C          C       0.88906   0.79213   0.55698   0.28109
C          C       0.97960   0.71077   0.56197  -0.03367
C          C       0.99703   0.62542   0.53281   0.40803
C          C       0.97890   0.82584   0.61144   0.18244
C          C       0.63947   0.01865   0.79942   0.24503
C          C       0.58660   0.96046   0.72163   0.29342
C          C       0.49843   0.94947   0.80096  -0.04040
C          C       0.48715   0.97169   0.88396   0.40592
C          C       0.49823   0.90244   0.68808   0.18387
C          C       0.92861   0.14732   0.68794  -0.09810
C          C       0.99252   0.06421   0.74495  -0.17151
C          C       0.92726   0.05037   0.84865  -0.16347
C          C       0.88544   0.14666   0.88433  -0.11352
C          C       0.81240   0.22675   0.83259  -0.15711
C          C       0.87541   0.24193   0.72834  -0.16930
C          C       0.84994   0.11866   0.67166   0.56416
C          C       0.83085   0.13918   0.98778   0.59635
C          C       0.51791   0.80244   0.42827  -0.10971
C          C       0.54157   0.76792   0.34004  -0.17080
C          C       0.62399   0.66559   0.33179  -0.16212
C          C       0.59091   0.59132   0.41936  -0.10650
C          C       0.57625   0.62438   0.50511  -0.16627
C          C       0.49121   0.72526   0.51443  -0.16935
C          C       0.60418   0.83723   0.42309   0.58598
C          C       0.67215   0.49118   0.40444   0.58420
C          C       0.05217   0.51203   0.89876  -0.11054
C          C       0.10576   0.51370   0.96068  -0.16733
C          C       0.92929   0.54791   0.94427  -0.16454
C          C       0.08512   0.57067   0.80343   0.58940
N          N       0.25661   0.90038   0.73826  -0.41104
N          N       0.27154   0.98503   0.58407  -0.32915
N          N       0.20661   0.77783   0.60427  -0.32232
N          N       0.23534   0.90765   0.49606  -0.40281
N          N       0.20644   0.75927   0.80222  -0.57190
N          N       0.07866   0.37161   0.49737  -0.38639
N          N       0.18320   0.20604   0.47559  -0.38220
N          N       0.96414   0.26606   0.40350  -0.30204
N          N       0.11078   0.13495   0.41143  -0.38389
N          N       0.91996   0.45543   0.46746  -0.53481
N          N       0.43924   0.99209   0.12122  -0.38394
N          N       0.34093   0.00483   0.28104  -0.35393
N          N       0.55785   0.08782   0.22214  -0.35161
N          N       0.41423   0.06957   0.34938  -0.35473
N          N       0.58772   0.04037   0.03339  -0.57245
N          N       0.74341   0.09962   0.26174  -0.41078
N          N       0.72846   0.01498   0.41595  -0.32923
N          N       0.79327   0.22223   0.39578  -0.32236
N          N       0.76457   0.09241   0.50398  -0.40296
N          N       0.79351   0.24076   0.19778  -0.57192
N          N       0.92132   0.62838   0.50270  -0.38684
N          N       0.81682   0.79396   0.52444  -0.38217
N          N       0.03582   0.73391   0.59658  -0.30196
N          N       0.88925   0.86505   0.58858  -0.38449
N          N       0.07998   0.54452   0.53267  -0.53549
N          N       0.56077   0.00791   0.87880  -0.38411
N          N       0.65910   0.99516   0.71899  -0.35350
N          N       0.44217   0.91219   0.77787  -0.35234
N          N       0.58580   0.93044   0.65063  -0.35488
N          N       0.41230   0.95962   0.96664  -0.57245
O          O       0.14234   0.83095   0.96575  -0.55215
O          O       0.24724   0.89900   0.97151  -0.56204
O          O       0.11262   0.96863   0.34884  -0.56943
O          O       0.24091   0.82309   0.32493  -0.51633
O          O       0.41369   0.13807   0.49954  -0.58949
O          O       0.31855   0.15513   0.64927  -0.54732
O          O       0.26002   0.54954   0.55251  -0.56614
O          O       0.32336   0.55063   0.65379  -0.53427
O          O       0.89544   0.35047   0.20879  -0.58503
O          O       0.90804   0.45775   0.26490  -0.53615
O          O       0.85763   0.16907   0.03426  -0.55187
O          O       0.75270   0.10106   0.02848  -0.56249
O          O       0.88737   0.03137   0.65118  -0.56950
O          O       0.75910   0.17694   0.67505  -0.51672
O          O       0.58631   0.86195   0.50048  -0.58968
O          O       0.68147   0.84486   0.35074  -0.54710
O          O       0.73994   0.45043   0.44735  -0.56570
O          O       0.67631   0.44950   0.34621  -0.53473
O          O       0.10475   0.64941   0.79130  -0.58435
O          O       0.09197   0.54224   0.73521  -0.53632

