data_crystal

_audit_creation_method 'AiiDA-DDEC plugin'

_cell_length_a        14.11882
_cell_length_b        14.25722
_cell_length_c        14.25616

_cell_angle_alpha     95.17715
_cell_angle_beta     117.44417
_cell_angle_gamma     117.45335

_symmetry_space_group_name_Hall 'P 1'
_symmetry_space_group_name_H-M  'P 1'

loop_
_symmetry_equiv_pos_as_xyz
 'x,y,z'

loop_
_atom_site_label
_atom_site_type_symbol
_atom_site_fract_x
_atom_site_fract_y
_atom_site_fract_z
_atom_site_charge
Co         Co      0.23611   0.86762   0.11830   0.30060
Co         Co      0.74928   0.61706   0.38235   0.30360
Co         Co      0.73508   0.11778   0.86751   0.30165
Co         Co      0.24948   0.36708   0.63246   0.30283
H          H       0.09261   0.95086   0.16654   0.08589
H          H       0.12500   0.13979   0.21707   0.10720
H          H       0.28031   0.30245   0.19635   0.10848
H          H       0.36917   0.07674   0.09293   0.08067
H          H       0.40914   0.07270   0.35959   0.08938
H          H       0.37569   0.09312   0.51509   0.10722
H          H       0.21787   0.91790   0.52166   0.10844
H          H       0.13647   0.72050   0.21350   0.07789
H          H       0.78747   0.85883   0.45059   0.08912
H          H       0.92419   0.01447   0.64217   0.10821
H          H       0.10588   0.02166   0.80812   0.10665
H          H       0.99447   0.71562   0.57695   0.07713
H          H       0.71351   0.66550   0.57210   0.08605
H          H       0.57546   0.71734   0.59060   0.10850
H          H       0.39233   0.69925   0.41495   0.10852
H          H       0.51230   0.59118   0.22277   0.08032
H          H       0.71217   0.54944   0.14108   0.08957
H          H       0.57598   0.35826   0.98543   0.10753
H          H       0.39418   0.19152   0.97784   0.10787
H          H       0.50402   0.42245   0.28316   0.07660
H          H       0.78569   0.42727   0.33423   0.08543
H          H       0.92429   0.40909   0.28273   0.10812
H          H       0.10701   0.58465   0.30056   0.10773
H          H       0.98704   0.77670   0.40892   0.08009
H          H       0.09176   0.64053   0.92601   0.08572
H          H       0.12390   0.48427   0.90682   0.10792
H          H       0.28066   0.47759   0.08295   0.10817
H          H       0.36887   0.79142   0.27725   0.08038
H          H       0.40867   0.83589   0.05030   0.08811
H          H       0.37614   0.78359   0.86132   0.10698
H          H       0.21905   0.80132   0.69708   0.10803
H          H       0.13687   0.91532   0.92363   0.07732
H          H       0.90873   0.05034   0.83631   0.08890
H          H       0.87621   0.86150   0.78364   0.10717
H          H       0.71829   0.69658   0.80068   0.10839
H          H       0.63689   0.92323   0.91560   0.07722
H          H       0.59195   0.92583   0.64083   0.08535
H          H       0.62380   0.90674   0.48419   0.10809
H          H       0.78027   0.08273   0.47755   0.10777
H          H       0.86897   0.27707   0.79169   0.08021
H          H       0.21283   0.14067   0.54761   0.08682
H          H       0.07419   0.98404   0.35677   0.10895
H          H       0.89144   0.97668   0.19139   0.10808
H          H       0.01181   0.28856   0.42154   0.08035
H          H       0.28678   0.33681   0.42861   0.08926
H          H       0.42286   0.28248   0.40898   0.10744
H          H       0.60422   0.29765   0.58319   0.10687
H          H       0.49483   0.41735   0.77933   0.07727
H          H       0.28663   0.45226   0.85919   0.08555
H          H       0.42582   0.64347   0.01584   0.10939
H          H       0.60853   0.80830   0.02291   0.10744
H          H       0.48692   0.57792   0.71053   0.08005
H          H       0.21261   0.57078   0.66296   0.08993
H          H       0.07720   0.59084   0.71774   0.10755
H          H       0.89516   0.41634   0.70218   0.10758
H          H       0.00445   0.22008   0.58274   0.07781
H          H       0.90893   0.35924   0.07311   0.08904
H          H       0.87579   0.51511   0.09328   0.10683
H          H       0.71852   0.52181   0.91820   0.10751
H          H       0.63621   0.21302   0.72087   0.07766
H          H       0.59231   0.16583   0.95101   0.08592
H          H       0.62471   0.21671   0.13983   0.10741
H          H       0.78097   0.19704   0.30309   0.10915
H          H       0.86924   0.09265   0.07731   0.08060
C          C       0.16170   0.02343   0.16119   0.01358
C          C       0.17983   0.12945   0.18794  -0.12438
C          C       0.26714   0.21999   0.17790  -0.14077
C          C       0.33806   0.20254   0.14155   0.00622
C          C       0.31416   0.09358   0.11697   0.00037
C          C       0.33960  -0.00131   0.36309   0.01753
C          C       0.32029   0.00862   0.44992  -0.12902
C          C       0.23180   0.91170   0.45296  -0.14155
C          C       0.16159   0.80340   0.36551   0.00453
C          C       0.18866   0.80128   0.28266  -0.00146
C          C       0.86577   0.86324   0.52408   0.01571
C          C       0.94324   0.94978   0.63178  -0.13046
C          C       0.04329   0.95325   0.72415  -0.14283
C          C       0.06411   0.86662   0.70602   0.00412
C          C       0.98306   0.78423   0.59457  -0.00418
C          C       0.63536   0.66053   0.49792   0.01587
C          C       0.55658   0.68855   0.50675  -0.12630
C          C       0.45615   0.67981   0.40970  -0.14130
C          C       0.43689   0.64287   0.30273   0.00771
C          C       0.52034   0.61624   0.30179   0.00123
C          C       0.63343   0.47588   0.13621   0.01893
C          C       0.55656   0.36820   0.04989  -0.12935
C          C       0.45675   0.27540   0.04644  -0.14211
C          C       0.43595   0.29334   0.13302   0.00579
C          C       0.51595   0.40484   0.21492  -0.00359
C          C       0.86359   0.50138   0.33882   0.01333
C          C       0.94284   0.49281   0.31125  -0.12463
C          C       0.04338   0.58995   0.32029  -0.14106
C          C       0.06268   0.69696   0.35739   0.00391
C          C       0.97884   0.69763   0.38370   0.00429
C          C       0.16101   0.63722   0.00050   0.01673
C          C       0.17913   0.54949   0.99122  -0.12675
C          C       0.26695   0.54650   0.08847  -0.13871
C          C       0.33795   0.63495   0.19617   0.00514
C          C       0.31384   0.71978   0.19756   0.00108
C          C       0.33966   0.84075   0.97726   0.01513
C          C       0.32078   0.81236   0.87115  -0.12781
C          C       0.23265   0.82095   0.77965  -0.14276
C          C       0.16232   0.85864   0.79674   0.00303
C          C       0.18906   0.88705   0.90667   0.00005
C          C       0.83984   0.97725   0.84129   0.01774
C          C       0.82065   0.87102   0.81238  -0.12832
C          C       0.73202   0.77922   0.82046  -0.14139
C          C       0.66206   0.79650   0.85841   0.00507
C          C       0.68923   0.90651   0.88744  -0.00214
C          C       0.66141   0.00026   0.63769   0.01383
C          C       0.67919   0.99101   0.54970  -0.12517
C          C       0.76670   0.08830   0.54655  -0.13971
C          C       0.83786   0.19605   0.63505   0.00514
C          C       0.81402   0.19737   0.72010   0.00190
C          C       0.13457   0.13661   0.47437   0.01525
C          C       0.05577   0.04920   0.36697  -0.12787
C          C       0.95549   0.04576   0.27510  -0.13950
C          C       0.93636   0.13339   0.29349   0.00709
C          C       0.01973   0.21759   0.40408  -0.00011
C          C       0.36496   0.34143   0.50237   0.01384
C          C       0.44232   0.31171   0.49299  -0.12771
C          C       0.54230   0.31931   0.58953  -0.14330
C          C       0.56331   0.35770   0.69723   0.00319
C          C       0.48274   0.38812   0.69895  -0.00305
C          C       0.36475   0.52542   0.86304   0.01503
C          C       0.44407   0.63287   0.95064  -0.12893
C          C       0.54452   0.72444   0.95402  -0.13909
C          C       0.56348   0.70589   0.86630   0.00441
C          C       0.47931   0.59538   0.78168   0.00223
C          C       0.13429   0.49698   0.65820   0.01679
C          C       0.05736   0.50667   0.68829  -0.12785
C          C       0.95729   0.41012   0.68080  -0.14261
C          C       0.93625   0.30246   0.64244   0.00537
C          C       0.01650   0.30047   0.61174  -0.00494
C          C       0.83992   0.36311  -0.00097   0.01420
C          C       0.82040   0.44985   0.00882  -0.12873
C          C       0.73189   0.45275   0.91191  -0.14168
C          C       0.66163   0.36530   0.80351   0.00375
C          C       0.68875   0.28249   0.80154  -0.00137
C          C       0.66182   0.16105   0.02381   0.01528
C          C       0.67988   0.18788   0.12973  -0.12515
C          C       0.76732   0.17809   0.22046  -0.14050
C          C       0.83804   0.14159   0.20280   0.00712
C          C       0.81421   0.11692   0.09391   0.00033
N          N       0.22809   0.00433   0.12470  -0.20692
N          N       0.27536   0.89463   0.27950  -0.21119
N          N       0.88598   0.78019   0.50413  -0.20952
N          N       0.61728   0.62302   0.39523  -0.20808
N          N       0.61263   0.49571   0.21878  -0.21129
N          N       0.88150   0.60402   0.37620  -0.20935
N          N       0.22751   0.72281   0.10378  -0.20808
N          N       0.27517   0.87997   0.99642  -0.21063
N          N       0.77579   0.99659   0.88095  -0.21028
N          N       0.72798   0.10354   0.72334  -0.20760
N          N       0.11672   0.22125   0.49422  -0.20812
N          N       0.38570   0.38153   0.60596  -0.20881
N          N       0.38213   0.50550   0.77807  -0.20857
N          N       0.11334   0.39338   0.61780  -0.20932
N          N       0.77538   0.27939   0.89492  -0.21002
N          N       0.72803   0.12444   0.00455  -0.20739

