data_crystal

_audit_creation_method 'AiiDA-DDEC plugin'

_cell_length_a        16.85071
_cell_length_b        16.86410
_cell_length_c        16.85679

_cell_angle_alpha     67.11955
_cell_angle_beta     67.10258
_cell_angle_gamma     67.17305

_symmetry_space_group_name_Hall 'P 1'
_symmetry_space_group_name_H-M  'P 1'

loop_
_symmetry_equiv_pos_as_xyz
 'x,y,z'

loop_
_atom_site_label
_atom_site_type_symbol
_atom_site_fract_x
_atom_site_fract_y
_atom_site_fract_z
_atom_site_charge
Zn         Zn      0.79341   0.83076   0.38061   0.97343
Zn         Zn      0.78481   0.82257   0.23057   0.97284
Zn         Zn      0.38136   0.79756   0.82537   0.96918
Zn         Zn      0.23099   0.78943   0.81760   0.97022
Zn         Zn      0.82928   0.38438   0.79346   0.97078
Zn         Zn      0.82143   0.23449   0.78513   0.96951
H          H       0.04609   0.78062   0.09884   0.13401
H          H       0.30688   0.77333   0.08958   0.12559
H          H       0.09215   0.77529   0.33513   0.12399
H          H       0.38786   0.90765   0.24510   0.12609
H          H       0.24884   0.65843   0.37016   0.12945
H          H       0.22170   0.69833   0.55691   0.03232
H          H       0.17705   0.55672   0.60877   0.09705
H          H       0.17874   0.61809   0.49775   0.08030
H          H       0.33283   0.51194   0.44483   0.11716
H          H       0.24830   0.45538   0.50713   0.11867
H          H       0.32622   0.44856   0.55770   0.11984
H          H       0.36739   0.52660   0.61358   0.14722
H          H       0.26385   0.56924   0.68803   0.12559
H          H       0.34389   0.63207   0.63050   0.13254
H          H       0.40650   0.95467   0.09019   0.04142
H          H       0.35276   0.05907   0.95725   0.09426
H          H       0.36114   0.94655   0.97321   0.09273
H          H       0.21954   0.03654   0.93708   0.11284
H          H       0.18628   0.09518   0.01626   0.11052
H          H       0.19119   0.97968   0.05272   0.12202
H          H       0.21365   0.07042   0.15097   0.12990
H          H       0.30865   0.11305   0.09607   0.14204
H          H       0.29812   0.03563   0.20466   0.13127
H          H       0.52566   0.82896   0.30535   0.12062
H          H       0.51437   0.83749   0.56081   0.13428
H          H       0.29349   0.79393   0.53126   0.11545
H          H       0.10195   0.05097   0.77622   0.13287
H          H       0.09491   0.30947   0.77257   0.12577
H          H       0.33893   0.09333   0.77347   0.12652
H          H       0.24973   0.38876   0.90709   0.12237
H          H       0.37350   0.25231   0.65608   0.13036
H          H       0.56095   0.22479   0.69623   0.03356
H          H       0.61150   0.18114   0.55380   0.09731
H          H       0.50108   0.18146   0.61727   0.07881
H          H       0.44512   0.33496   0.51258   0.11801
H          H       0.50791   0.25164   0.45482   0.11921
H          H       0.55715   0.33090   0.44752   0.12073
H          H       0.61792   0.36976   0.52337   0.14760
H          H       0.69153   0.26641   0.56722   0.12580
H          H       0.63461   0.34726   0.62870   0.13282
H          H       0.09608   0.40655   0.95039   0.04097
H          H       0.96125   0.35499   0.05558   0.09359
H          H       0.97894   0.36150   0.94320   0.09333
H          H       0.94009   0.22105   0.03653   0.11233
H          H       0.02051   0.18775   0.09375   0.10830
H          H       0.05538   0.19207   0.97852   0.12151
H          H       0.15288   0.21713   0.07378   0.13078
H          H       0.09619   0.31405   0.11277   0.14040
H          H       0.20596   0.30254   0.03741   0.13140
H          H       0.30879   0.52894   0.82477   0.12392
H          H       0.56433   0.51947   0.83230   0.13446
H          H       0.53459   0.29668   0.79283   0.11652
H          H       0.77829   0.10419   0.04657   0.13456
H          H       0.77346   0.09503   0.30657   0.12554
H          H       0.77595   0.33960   0.09147   0.12288
H          H       0.90870   0.25213   0.38527   0.12529
H          H       0.65654   0.37311   0.25079   0.12969
H          H       0.69528   0.56149   0.22418   0.03342
H          H       0.55398   0.61198   0.17945   0.09762
H          H       0.61679   0.50142   0.18009   0.08101
H          H       0.51060   0.44646   0.33338   0.11812
H          H       0.45423   0.50878   0.24890   0.11756
H          H       0.44597   0.55874   0.32791   0.12040
H          H       0.52235   0.61578   0.37053   0.14762
H          H       0.56504   0.69080   0.26774   0.12632
H          H       0.62741   0.63322   0.34794   0.13230
H          H       0.95175   0.09787   0.40576   0.04051
H          H       0.05554   0.96199   0.35625   0.09377
H          H       0.94295   0.97980   0.36339   0.09316
H          H       0.03467   0.93860   0.22444   0.11290
H          H       0.09411   0.01768   0.18890   0.11066
H          H       0.97881   0.05411   0.19304   0.12340
H          H       0.07457   0.15196   0.21522   0.12990
H          H       0.11350   0.09742   0.31249   0.14260
H          H       0.03870   0.20741   0.29848   0.13231
H          H       0.82809   0.30993   0.52529   0.12375
H          H       0.83432   0.56579   0.51546   0.13416
H          H       0.79131   0.53648   0.29447   0.11505
C          C       0.96134   0.79210   0.26705   0.59699
C          C       0.05981   0.77689   0.22266  -0.04607
C          C       0.09156   0.77649   0.13249  -0.09344
C          C       0.18101   0.77418   0.08532  -0.04411
C          C       0.23835   0.77263   0.12826  -0.10607
C          C       0.20786   0.77216   0.21854   0.07885
C          C       0.11823   0.77298   0.26573  -0.12204
C          C       0.21646   0.77880   0.98787   0.60538
C          C       0.26619   0.77657   0.26285  -0.02531
C          C       0.30955   0.84548   0.22493   0.20604
C          C       0.35731   0.85306   0.27220  -0.27582
C          C       0.36264   0.79382   0.35742  -0.01730
C          C       0.32450   0.72162   0.39237   0.17831
C          C       0.27675   0.71464   0.34468  -0.24485
C          C       0.27071   0.63419   0.54803   0.23242
C          C       0.22263   0.57671   0.54167  -0.18103
C          C       0.28592   0.49353   0.51115  -0.36485
C          C       0.31429   0.58786   0.62448  -0.44764
C          C       0.33456   0.97755   0.09470   0.22773
C          C       0.32262   0.00390   0.00116  -0.17246
C          C       0.22432   0.03034   0.00226  -0.36868
C          C       0.28615   0.05316   0.13971  -0.45740
C          C       0.35175   0.80883   0.65227   0.59605
C          C       0.62136   0.84639   0.38954   0.60148
C          C       0.40479   0.80849   0.41113   0.08062
C          C       0.48846   0.82610   0.37501  -0.11959
C          C       0.52822   0.83650   0.42866  -0.04476
C          C       0.48314   0.83116   0.51888  -0.09151
C          C       0.39794   0.81635   0.55524  -0.04341
C          C       0.35946   0.80527   0.50169  -0.11379
C          C       0.26968   0.96497   0.78752   0.59780
C          C       0.22601   0.06319   0.77324  -0.04681
C          C       0.13587   0.09581   0.77285  -0.09195
C          C       0.08933   0.18508   0.77132  -0.04527
C          C       0.13295   0.24112   0.77104  -0.10542
C          C       0.22326   0.20968   0.77066   0.08135
C          C       0.26975   0.12037   0.77053  -0.12512
C          C       0.99202   0.22109   0.77525   0.60071
C          C       0.26786   0.26731   0.77571  -0.02722
C          C       0.23035   0.30911   0.84568   0.20283
C          C       0.27671   0.35825   0.85249  -0.27139
C          C       0.36123   0.36497   0.79225  -0.01903
C          C       0.39632   0.32718   0.71983   0.17974
C          C       0.34881   0.27929   0.71280  -0.24759
C          C       0.55159   0.27381   0.63214   0.22943
C          C       0.54435   0.22593   0.57508  -0.17893
C          C       0.51186   0.28929   0.49294  -0.36856
C          C       0.62822   0.31719   0.58515  -0.44914
C          C       0.09936   0.33486   0.97653   0.22697
C          C       0.00572   0.32366   0.00143  -0.17358
C          C       0.00577   0.22559   0.02915  -0.36404
C          C       0.14147   0.28979   0.05432  -0.45544
C          C       0.65577   0.35615   0.80506   0.59666
C          C       0.39283   0.62611   0.84091   0.59970
C          C       0.41460   0.40806   0.80608   0.08052
C          C       0.37839   0.49215   0.82248  -0.12142
C          C       0.43196   0.53258   0.83217  -0.04085
C          C       0.52226   0.48779   0.82682  -0.09318
C          C       0.55862   0.40221   0.81308  -0.04576
C          C       0.50508   0.36306   0.80298  -0.11398
C          C       0.79104   0.27147   0.96132   0.59912
C          C       0.77619   0.22737   0.05969  -0.04666
C          C       0.77501   0.13746   0.09187  -0.09718
C          C       0.77286   0.09018   0.18124  -0.04037
C          C       0.77232   0.13312   0.23803  -0.10754
C          C       0.77227   0.22326   0.20721   0.08171
C          C       0.77305   0.27042   0.11767  -0.12108
C          C       0.77639   0.99292   0.21699   0.60127
C          C       0.77660   0.26771   0.26551  -0.02693
C          C       0.84646   0.23091   0.30745   0.20481
C          C       0.85349   0.27802   0.35573  -0.27580
C          C       0.79287   0.36227   0.36250  -0.01435
C          C       0.72007   0.39629   0.32538   0.17517
C          C       0.71347   0.34850   0.27752  -0.24338
C          C       0.63125   0.55146   0.27308   0.23194
C          C       0.57457   0.54477   0.22441  -0.18106
C          C       0.49175   0.51295   0.28705  -0.36631
C          C       0.58379   0.62707   0.31774  -0.44975
C          C       0.97722   0.10028   0.33425   0.22826
C          C       0.00146   0.00613   0.32476  -0.17166
C          C       0.02886   0.00443   0.22725  -0.36963
C          C       0.05526   0.14214   0.28765  -0.45941
C          C       0.80468   0.65736   0.35272   0.59986
C          C       0.84487   0.39401   0.62162   0.59972
C          C       0.80686   0.41596   0.40510   0.07931
C          C       0.82466   0.37973   0.48860  -0.12101
C          C       0.83463   0.43333   0.52870  -0.04192
C          C       0.82829   0.52378   0.48417  -0.09521
C          C       0.81297   0.56028   0.39926  -0.04400
C          C       0.80242   0.50673   0.36048  -0.11255
O          O       0.91572   0.79349   0.22098  -0.57487
O          O       0.92828   0.80571   0.34502  -0.53546
O          O       0.16472   0.78066   0.94727  -0.53206
O          O       0.29781   0.78185   0.95101  -0.57653
O          O       0.34417   0.65523   0.46757  -0.25588
O          O       0.29771   0.90123   0.14376  -0.23027
O          O       0.27221   0.79848   0.68616  -0.53449
O          O       0.39689   0.81227   0.69589  -0.56942
O          O       0.66126   0.84611   0.44109  -0.53755
O          O       0.65607   0.85259   0.30582  -0.57771
O          O       0.22246   0.91969   0.79047  -0.57609
O          O       0.34851   0.93155   0.79927  -0.53275
O          O       0.95129   0.16946   0.77714  -0.53102
O          O       0.95540   0.30247   0.77775  -0.57300
O          O       0.47139   0.34713   0.65344  -0.25145
O          O       0.15105   0.29368   0.90354  -0.22738
O          O       0.68963   0.27719   0.79368  -0.53377
O          O       0.69947   0.40107   0.80884  -0.56981
O          O       0.44412   0.66612   0.84113  -0.53581
O          O       0.30950   0.66123   0.84545  -0.57987
O          O       0.79151   0.22568   0.91595  -0.57420
O          O       0.80530   0.34917   0.92798  -0.53595
O          O       0.77748   0.95240   0.16568  -0.53150
O          O       0.77907   0.95642   0.29845  -0.57362
O          O       0.65272   0.47058   0.34588  -0.25643
O          O       0.90398   0.15117   0.29336  -0.22826
O          O       0.79377   0.69054   0.27353  -0.53604
O          O       0.80792   0.70175   0.39716  -0.57243
O          O       0.84534   0.44523   0.66145  -0.53602
O          O       0.85024   0.31052   0.65628  -0.57735

