data_crystal

_audit_creation_method 'AiiDA-DDEC plugin'

_cell_length_a        13.63998
_cell_length_b        15.16392
_cell_length_c        20.72979

_cell_angle_alpha     89.97234
_cell_angle_beta     102.30751
_cell_angle_gamma     90.03045

_symmetry_space_group_name_Hall 'P 1'
_symmetry_space_group_name_H-M  'P 1'

loop_
_symmetry_equiv_pos_as_xyz
 'x,y,z'

loop_
_atom_site_label
_atom_site_type_symbol
_atom_site_fract_x
_atom_site_fract_y
_atom_site_fract_z
_atom_site_charge
Co         Co      0.24455   0.25005   0.46247   0.85578
Co         Co      0.82185   0.24774   0.60262   0.85375
Co         Co      0.29761   0.36249   0.79774   0.88440
Co         Co      0.25547   0.74934   0.03755   0.85545
Co         Co      0.67818   0.74820   0.89734   0.85315
Co         Co      0.20250   0.86209   0.70232   0.88484
Co         Co      0.75547   0.74993   0.53754   0.85574
Co         Co      0.17817   0.75227   0.39741   0.85374
Co         Co      0.70240   0.63753   0.20223   0.88467
Co         Co      0.74454   0.25068   0.96246   0.85537
Co         Co      0.32181   0.25180   0.10265   0.85315
Co         Co      0.79748   0.13790   0.29769   0.88505
H          H       0.45949   0.34496   0.70044   0.10867
H          H       0.43943   0.31659   0.57809   0.11275
H          H      -0.00136   0.23589   0.39828   0.12301
H          H       0.84898   0.23580   0.44891   0.12324
H          H       0.90037   0.30666   0.76234   0.11444
H          H       0.07246   0.33770   0.83275   0.10843
H          H       0.04054   0.84478   0.79965   0.10863
H          H       0.06064   0.81653   0.92203   0.11248
H          H       0.50143   0.73581   0.10180   0.12279
H          H       0.65108   0.73608   0.05120   0.12386
H          H       0.59964   0.80648   0.73772   0.11439
H          H       0.42762   0.83756   0.66730   0.10871
H          H       0.54051   0.65506   0.29956   0.10871
H          H       0.56057   0.68342   0.42191   0.11265
H          H       0.00135   0.76404   0.60174   0.12310
H          H       0.15102   0.76413   0.55111   0.12347
H          H       0.09964   0.69337   0.23768   0.11446
H          H       0.92755   0.66233   0.16727   0.10837
H          H       0.95945   0.15522   0.20036   0.10880
H          H       0.93936   0.18348   0.07799   0.11255
H          H       0.49859   0.26421   0.89821   0.12267
H          H       0.34892   0.26394   0.94880   0.12366
H          H       0.40033   0.19349   0.26226   0.11446
H          H       0.57236   0.16244   0.33270   0.10886
C          C       0.34524   0.16444   0.84269  -0.14868
C          C       0.20534   0.29899   0.59130   0.10528
C          C       0.10777   0.28058   0.55156   0.09800
C          C       0.02357   0.27990   0.58021   0.09764
C          C       0.03482   0.29659   0.64949   0.10247
C          C       0.13025   0.31442   0.68859   0.10827
C          C       0.21663   0.31596   0.65907   0.10597
C          C       0.38594   0.33306   0.66892   0.06345
C          C       0.37464   0.31654   0.60097   0.07252
C          C       0.00773   0.24866   0.45075   0.09522
C          C       0.92279   0.24856   0.47943   0.09384
C          C       0.96621   0.30916   0.74056   0.07093
C          C       0.06179   0.32704   0.77977   0.06857
C          C       0.26974   0.05524   0.50867   0.48423
C          C       0.23975   0.43413   0.92700   0.44482
C          C       0.15936   0.24163   0.30980   0.48010
C          C       0.68632   0.27784   0.70565   0.46456
C          C       0.46634   0.26423   0.44408   0.46469
C          C       0.63523   0.25544   0.48346   0.47783
C          C       0.87705   0.05296   0.63826   0.48384
C          C       0.51868   0.43509   0.83432   0.44272
C          C       0.15447   0.66412   0.65708  -0.14805
C          C       0.29471   0.79905   0.90881   0.10506
C          C       0.39225   0.78049   0.94852   0.09832
C          C       0.47642   0.77960   0.91983   0.09698
C          C       0.46515   0.79622   0.85054   0.10296
C          C       0.36975   0.81416   0.81145   0.10780
C          C       0.28341   0.81589   0.84101   0.10727
C          C       0.11412   0.83300   0.83118   0.06338
C          C       0.12544   0.81657   0.89915   0.07258
C          C       0.49232   0.74854   0.04931   0.09600
C          C       0.57725   0.74854   0.02063   0.09261
C          C       0.53379   0.80890   0.75948   0.07074
C          C       0.43823   0.82682   0.72027   0.06814
C          C       0.23011   0.55452   0.99152   0.48425
C          C       0.26016   0.93440   0.57311   0.44446
C          C       0.34084   0.74096   0.19038   0.47987
C          C       0.81339   0.77860   0.79415   0.46600
C          C       0.03370   0.76307   0.05602   0.46385
C          C       0.86486   0.75439   0.01653   0.47753
C          C       0.62308   0.55328   0.86169   0.48322
C          C       0.98140   0.93461   0.66559   0.44356
C          C       0.65482   0.83556   0.15731  -0.14913
C          C       0.79465   0.70102   0.40870   0.10507
C          C       0.89223   0.71939   0.44845   0.09778
C          C       0.97643   0.72008   0.41980   0.09762
C          C       0.96518   0.70342   0.35051   0.10237
C          C       0.86974   0.68558   0.31141   0.10834
C          C       0.78337   0.68405   0.34092   0.10621
C          C       0.61406   0.66695   0.33108   0.06308
C          C       0.62535   0.68347   0.39903   0.07268
C          C       0.99227   0.75128   0.54927   0.09539
C          C       0.07721   0.75138   0.52059   0.09337
C          C       0.03380   0.69086   0.25945   0.07086
C          C       0.93822   0.67297   0.22024   0.06844
C          C       0.73028   0.94475   0.49136   0.48425
C          C       0.76027   0.56587   0.07301   0.44488
C          C       0.84061   0.75841   0.69022   0.47966
C          C       0.31365   0.72212   0.29439   0.46453
C          C       0.53369   0.73571   0.55595   0.46543
C          C       0.36481   0.74457   0.51659   0.47853
C          C       0.12293   0.94703   0.36175   0.48382
C          C       0.48135   0.56490   0.16568   0.44265
C          C       0.84556   0.33585   0.34293  -0.14799
C          C       0.70529   0.20095   0.09119   0.10526
C          C       0.60774   0.21950   0.05149   0.09812
C          C       0.52358   0.22040   0.08017   0.09719
C          C       0.53485   0.20379   0.14947   0.10300
C          C       0.63024   0.18585   0.18855   0.10773
C          C       0.71658   0.18413   0.15900   0.10719
C          C       0.88588   0.16700   0.16883   0.06338
C          C       0.87456   0.18343   0.10086   0.07265
C          C       0.50768   0.25146   0.95069   0.09593
C          C       0.42275   0.25147   0.97936   0.09256
C          C       0.46620   0.19108   0.24052   0.07074
C          C       0.56175   0.17317   0.27973   0.06811
C          C       0.76990   0.44550   0.00848   0.48458
C          C       0.73984   0.06560   0.42691   0.44444
C          C       0.65912   0.25901   0.80964   0.47976
C          C       0.18657   0.22146   0.20587   0.46613
C          C       0.96632   0.23692   0.94399   0.46415
C          C       0.13516   0.24558   0.98348   0.47765
C          C       0.37694   0.44673   0.13831   0.48288
C          C       0.01856   0.06537   0.33441   0.44367
N          N       0.28486   0.29918   0.56148  -0.24105
N          N       0.10057   0.26346   0.48645  -0.23792
N          N       0.93000   0.26286   0.54420  -0.23983
N          N       0.95156   0.29363   0.67540  -0.23493
N          N       0.14383   0.33007   0.75402  -0.15515
N          N       0.30725   0.33319   0.69815  -0.15034
N          N       0.25680   0.12846   0.48904  -0.56778
N          N       0.28897   0.97400   0.52475  -0.35425
N          N       0.26207   0.39147   0.88480  -0.48866
N          N       0.17985   0.25802   0.36673  -0.54686
N          N       0.12808   0.22281   0.24770  -0.37374
N          N       0.73233   0.28217   0.66348  -0.55559
N          N       0.38116   0.27335   0.44636  -0.55628
N          N       0.55695   0.25371   0.43518  -0.37252
N          N       0.71083   0.25562   0.52359  -0.54618
N          N       0.85229   0.12606   0.62292  -0.56698
N          N       0.89332   0.97136   0.65428  -0.35843
N          N       0.44346   0.39426   0.82338  -0.48685
N          N       0.32462   0.23677   0.82276  -0.47106
N          N       0.27035   0.47065   0.77201  -0.45629
N          N       0.21519   0.79916   0.93866  -0.24113
N          N       0.39946   0.76329   0.01363  -0.23864
N          N       0.57000   0.76267   0.95583  -0.23931
N          N       0.54843   0.79341   0.82466  -0.23450
N          N       0.35618   0.82988   0.74602  -0.15524
N          N       0.19277   0.83298   0.80189  -0.15190
N          N       0.24311   0.62786   0.01084  -0.56714
N          N       0.21109   0.47319   0.97562  -0.35429
N          N       0.23793   0.89114   0.61508  -0.48841
N          N       0.32014   0.75594   0.13325  -0.54644
N          N       0.37240   0.72356   0.25272  -0.37350
N          N       0.76766   0.78293   0.83646  -0.55657
N          N       0.11884   0.77279   0.05379  -0.55594
N          N       0.94313   0.75171   0.06480  -0.37196
N          N       0.78930   0.75530   0.97638  -0.54622
N          N       0.64766   0.62647   0.87683  -0.56665
N          N       0.60698   0.47154   0.84598  -0.35707
N          N       0.05645   0.89355   0.67631  -0.48710
N          N       0.17544   0.73631   0.67722  -0.47135
N          N       0.22975   0.97003   0.72816  -0.45762
N          N       0.71513   0.70083   0.43852  -0.24078
N          N       0.89943   0.73650   0.51356  -0.23777
N          N       0.07000   0.73711   0.45582  -0.23953
N          N       0.04844   0.70639   0.32461  -0.23464
N          N       0.85616   0.66994   0.24598  -0.15536
N          N       0.69274   0.66683   0.30184  -0.15054
N          N       0.74319   0.87152   0.51097  -0.56768
N          N       0.71109   0.02600   0.47530  -0.35417
N          N       0.73794   0.60853   0.11520  -0.48864
N          N       0.82015   0.74200   0.63330  -0.54667
N          N       0.87187   0.77725   0.75232  -0.37336
N          N       0.26767   0.71780   0.33658  -0.55544
N          N       0.61887   0.72657   0.55366  -0.55658
N          N       0.44310   0.74624   0.56486  -0.37334
N          N       0.28921   0.74444   0.47646  -0.54648
N          N       0.14771   0.87394   0.37710  -0.56686
N          N       0.10664   0.02862   0.34572  -0.35842
N          N       0.55657   0.60574   0.17659  -0.48676
N          N       0.67540   0.76322   0.17726  -0.47073
N          N       0.72965   0.52940   0.22797  -0.45628
N          N       0.78481   0.20084   0.06135  -0.24142
N          N       0.60053   0.23670   0.98638  -0.23843
N          N       0.43000   0.23734   0.04417  -0.23937
N          N       0.45156   0.20658   0.17534  -0.23473
N          N       0.64380   0.17012   0.25398  -0.15520
N          N       0.80722   0.16703   0.19811  -0.15173
N          N       0.75690   0.37216   0.98916  -0.56741
N          N       0.78892   0.52682   0.02438  -0.35444
N          N       0.76204   0.10886   0.38493  -0.48862
N          N       0.67985   0.24403   0.86677  -0.54652
N          N       0.62755   0.27639   0.74731  -0.37336
N          N       0.23233   0.21713   0.16357  -0.55679
N          N       0.88117   0.22724   0.94623  -0.55605
N          N       0.05689   0.24822   0.93520  -0.37237
N          N       0.21070   0.24469   0.02363  -0.54605
N          N       0.35234   0.37354   0.12316  -0.56637
N          N       0.39306   0.52845   0.15403  -0.35705
N          N       0.94353   0.10644   0.32370  -0.48723
N          N       0.82456   0.26367   0.32278  -0.47155
N          N       0.77027   0.02997   0.27185  -0.45760

