data_crystal

_audit_creation_method 'AiiDA-DDEC plugin'

_cell_length_a         8.55157
_cell_length_b        12.16960
_cell_length_c        25.52394

_cell_angle_alpha     90.08821
_cell_angle_beta     90.04490
_cell_angle_gamma     93.02714

_symmetry_space_group_name_Hall 'P 1'
_symmetry_space_group_name_H-M  'P 1'

loop_
_symmetry_equiv_pos_as_xyz
 'x,y,z'

loop_
_atom_site_label
_atom_site_type_symbol
_atom_site_fract_x
_atom_site_fract_y
_atom_site_fract_z
_atom_site_charge
La         La      0.24535   0.98431   0.97798   1.95611
La         La      0.25332   0.01546   0.47742   1.95575
La         La      0.75465   0.01569   0.02202   1.95626
La         La      0.74668   0.98454   0.52257   1.95585
H          H       0.44173   0.83797   0.82118   0.13562
H          H       0.35505   0.95271   0.79344   0.14744
H          H       0.13809   0.70035   0.85681   0.15279
H          H       0.91073   0.56741   0.69218   0.11880
H          H       0.50719   0.26697   0.69984   0.14322
H          H       0.59177   0.35667   0.78202   0.10513
H          H       0.89099   0.59848   0.86035   0.11796
H          H       0.48862   0.30205   0.87182   0.14772
H          H       0.33616   0.29099   0.96469   0.13745
H          H       0.43632   0.35862   0.01760   0.15958
H          H       0.39714   0.29441   0.55718   0.16444
H          H       0.35119   0.21300   0.61281   0.14207
H          H       0.05767   0.16227   0.32084   0.13670
H          H       0.14365   0.04773   0.29245   0.14586
H          H       0.36206   0.29992   0.35691   0.15254
H          H       0.58805   0.43242   0.19207   0.11849
H          H       0.99152   0.73348   0.20010   0.14266
H          H       0.90845   0.64321   0.28182   0.10487
H          H       0.60964   0.40195   0.36022   0.11800
H          H       0.01213   0.69856   0.37199   0.14839
H          H       0.16441   0.71035   0.46492   0.13705
H          H       0.06573   0.64165   0.51762   0.16007
H          H       0.10181   0.70514   0.05739   0.16429
H          H       0.14827   0.78704   0.11301   0.14177
H          H       0.55826   0.16202   0.17881   0.13572
H          H       0.64495   0.04729   0.20655   0.14737
H          H       0.86191   0.29965   0.14318   0.15294
H          H       0.08927   0.43259   0.30782   0.11867
H          H       0.49281   0.73303   0.30016   0.14322
H          H       0.40823   0.64333   0.21798   0.10503
H          H       0.10900   0.40152   0.13965   0.11825
H          H       0.51137   0.69795   0.12817   0.14761
H          H       0.66383   0.70901   0.03530   0.13728
H          H       0.56368   0.64138   0.98239   0.15972
H          H       0.60285   0.70559   0.44282   0.16424
H          H       0.64880   0.78700   0.38719   0.14211
H          H       0.94233   0.83773   0.67916   0.13664
H          H       0.85634   0.95227   0.70755   0.14575
H          H       0.63794   0.70008   0.64309   0.15260
H          H       0.41194   0.56758   0.80792   0.11832
H          H       0.00847   0.26652   0.79989   0.14291
H          H       0.09154   0.35679   0.71817   0.10501
H          H       0.39035   0.59805   0.63978   0.11816
H          H       0.98787   0.30144   0.62801   0.14835
H          H       0.83558   0.28965   0.53508   0.13703
H          H       0.93427   0.35835   0.48237   0.16024
H          H       0.89819   0.29486   0.94261   0.16416
H          H       0.85172   0.21296   0.88698   0.14197
C          C       0.29448   0.92245   0.87380   0.60988
C          C       0.33244   0.88206   0.81957  -0.24487
C          C       0.03713   0.68228   0.77507   0.09331
C          C       0.12704   0.72494   0.81636  -0.13953
C          C       0.91828   0.59163   0.77603   0.07328
C          C       0.86391   0.54013   0.72981  -0.16142
C          C       0.74604   0.45538   0.73165   0.05487
C          C       0.68024   0.41002   0.68270   0.08439
C          C       0.56961   0.32424   0.67399  -0.17451
C          C       0.68569   0.42043   0.78043  -0.19888
C          C       0.73868   0.47203   0.82680   0.05976
C          C       0.85444   0.55764   0.82414  -0.16223
C          C       0.67308   0.44282   0.87809   0.08679
C          C       0.55987   0.36317   0.89307  -0.17080
C          C       0.53147   0.20487   0.99550   0.66636
C          C       0.45185   0.30977   0.98184  -0.26089
C          C       0.54409   0.15782   0.56697   0.64847
C          C       0.44878   0.24892   0.58950  -0.25620
C          C       0.20337   0.07528   0.37292   0.61496
C          C       0.16657   0.11766   0.31908  -0.24554
C          C       0.46278   0.31741   0.27517   0.09248
C          C       0.37293   0.27496   0.31645  -0.13892
C          C       0.58165   0.40824   0.27596   0.07309
C          C       0.63541   0.45968   0.22971  -0.15973
C          C       0.75330   0.54453   0.23154   0.05346
C          C       0.81868   0.59021   0.18266   0.08485
C          C       0.92930   0.67608   0.17415  -0.17289
C          C       0.81449   0.57945   0.28031  -0.19748
C          C       0.76214   0.52802   0.32669   0.05812
C          C       0.64616   0.44250   0.32401  -0.16107
C          C       0.82812   0.55745   0.37801   0.08739
C          C       0.94108   0.63735   0.39314  -0.17124
C          C       0.96892   0.79539   0.49638   0.66466
C          C       0.04906   0.69093   0.48211  -0.26187
C          C       0.95505   0.84214   0.06706   0.64880
C          C       0.05045   0.75107   0.08969  -0.25620
C          C       0.70551   0.07755   0.12620   0.60964
C          C       0.66756   0.11794   0.18042  -0.24482
C          C       0.96286   0.31772   0.22492   0.09337
C          C       0.87296   0.27505   0.18364  -0.13937
C          C       0.08171   0.40837   0.22397   0.07338
C          C       0.13609   0.45987   0.27019  -0.16147
C          C       0.25395   0.54462   0.26835   0.05470
C          C       0.31975   0.58997   0.31730   0.08464
C          C       0.43039   0.67576   0.32600  -0.17430
C          C       0.31431   0.57957   0.21956  -0.19888
C          C       0.26132   0.52797   0.17319   0.05977
C          C       0.14555   0.44236   0.17586  -0.16215
C          C       0.32691   0.55718   0.12191   0.08660
C          C       0.44013   0.63683   0.10693  -0.17111
C          C       0.46852   0.79513   0.00450   0.66637
C          C       0.54814   0.69023   0.01816  -0.26074
C          C       0.45590   0.84218   0.43303   0.64856
C          C       0.55121   0.75107   0.41049  -0.25620
C          C       0.79662   0.92472   0.62707   0.61478
C          C       0.83342   0.88233   0.68091  -0.24561
C          C       0.53721   0.68259   0.72482   0.09255
C          C       0.62707   0.72504   0.68354  -0.13840
C          C       0.41835   0.59176   0.72404   0.07299
C          C       0.36458   0.54032   0.77029  -0.15991
C          C       0.24669   0.45547   0.76845   0.05338
C          C       0.18132   0.40979   0.81733   0.08492
C          C       0.07069   0.32392   0.82585  -0.17275
C          C       0.18550   0.42054   0.71968  -0.19750
C          C       0.23785   0.47198   0.67330   0.05839
C          C       0.35384   0.55750   0.67598  -0.16105
C          C       0.17187   0.44254   0.62199   0.08693
C          C       0.05892   0.36265   0.60686  -0.17105
C          C       0.03107   0.20461   0.50362   0.66507
C          C       0.95093   0.30907   0.51789  -0.26180
C          C       0.04494   0.15786   0.93293   0.64877
C          C       0.94954   0.24892   0.91031  -0.25622
N          N       0.21128   0.81143   0.79546   0.21065
N          N       0.17911   0.82260   0.74347  -0.16128
N          N       0.07387   0.74356   0.73136  -0.20459
N          N       0.71668   0.45697   0.63480  -0.21579
N          N       0.63501   0.40565   0.59771  -0.11453
N          N       0.54380   0.32491   0.62140   0.19738
N          N       0.54553   0.37678   0.94574   0.20897
N          N       0.64500   0.45946   0.96340  -0.11416
N          N       0.72104   0.49982   0.92247  -0.22193
N          N       0.28863   0.18826   0.29551   0.21128
N          N       0.32096   0.17675   0.24354  -0.16255
N          N       0.42613   0.25570   0.23148  -0.20431
N          N       0.78212   0.54341   0.13467  -0.21459
N          N       0.86377   0.59474   0.09770  -0.11592
N          N       0.95516   0.67540   0.12155   0.19606
N          N       0.95543   0.62392   0.44582   0.20863
N          N       0.85618   0.54111   0.46333  -0.11272
N          N       0.78033   0.50051   0.42232  -0.22210
N          N       0.78872   0.18857   0.20454   0.21101
N          N       0.82088   0.17740   0.25653  -0.16145
N          N       0.92613   0.25644   0.26864  -0.20528
N          N       0.28332   0.54303   0.36519  -0.21538
N          N       0.36498   0.59434   0.40228  -0.11529
N          N       0.45620   0.67509   0.37859   0.19727
N          N       0.45446   0.62322   0.05426   0.20872
N          N       0.35499   0.54053   0.03660  -0.11343
N          N       0.27896   0.50017   0.07753  -0.22179
N          N       0.71136   0.81174   0.70449   0.21149
N          N       0.67903   0.82325   0.75645  -0.16332
N          N       0.57386   0.74430   0.76851  -0.20441
N          N       0.21787   0.45659   0.86533  -0.21484
N          N       0.13622   0.40526   0.90230  -0.11643
N          N       0.04484   0.32459   0.87844   0.19626
N          N       0.04456   0.37608   0.55418   0.20845
N          N       0.14382   0.45889   0.53666  -0.11215
N          N       0.21966   0.49949   0.57767  -0.22234
O          O       0.40630   0.97277   0.89898  -0.61292
O          O       0.15829   0.90506   0.89420  -0.61100
O          O       0.67939   0.20513   0.99721  -0.59988
O          O       0.44509   0.11733   0.00562  -0.70105
O          O       0.68769   0.15540   0.57683  -0.56875
O          O       0.47463   0.08383   0.53686  -0.72612
O          O       0.09281   0.02170   0.39696  -0.61269
O          O       0.33810   0.09466   0.39423  -0.61569
O          O       0.82096   0.79501   0.49731  -0.59835
O          O       0.05483   0.88271   0.50784  -0.70202
O          O       0.81166   0.84470   0.07682  -0.56662
O          O       0.02473   0.91593   0.03695  -0.72898
O          O       0.59369   0.02723   0.10101  -0.61261
O          O       0.84170   0.09494   0.10579  -0.61118
O          O       0.32060   0.79487   0.00278  -0.59977
O          O       0.55490   0.88267   0.99438  -0.70103
O          O       0.31231   0.84460   0.42317  -0.56837
O          O       0.52536   0.91616   0.46313  -0.72647
O          O       0.90718   0.97830   0.60303  -0.61275
O          O       0.66190   0.90533   0.60576  -0.61545
O          O       0.17904   0.20499   0.50269  -0.59881
O          O       0.94517   0.11729   0.49216  -0.70184
O          O       0.18833   0.15530   0.92318  -0.56663
O          O       0.97527   0.08407   0.96304  -0.72893

