data_crystal

_audit_creation_method 'AiiDA-DDEC plugin'

_cell_length_a         9.85960
_cell_length_b        13.17887
_cell_length_c        18.17216

_cell_angle_alpha     89.73911
_cell_angle_beta     89.82566
_cell_angle_gamma     81.36709

_symmetry_space_group_name_Hall 'P 1'
_symmetry_space_group_name_H-M  'P 1'

loop_
_symmetry_equiv_pos_as_xyz
 'x,y,z'

loop_
_atom_site_label
_atom_site_type_symbol
_atom_site_fract_x
_atom_site_fract_y
_atom_site_fract_z
_atom_site_charge
Cu         Cu      0.48842   0.74746   0.24898   0.80931
Cu         Cu      0.51155   0.25255   0.75102   0.80948
Cu         Cu      0.01047   0.25300   0.74915   0.80931
Cu         Cu      0.98951   0.74701   0.25084   0.80930
H          H       0.84128   0.28411   0.88566   0.09746
H          H       0.66445   0.22348   0.89490   0.09847
H          H       0.90345   0.03535   0.07140   0.10001
H          H       0.73766   0.01380   0.79182   0.11475
H          H       0.40181   0.03448   0.43077   0.09911
H          H       0.34553   0.71831   0.49139   0.09721
H          H       0.78084   0.49880   0.78679   0.11932
H          H       0.49327   0.17807   0.49387   0.09947
H          H       0.18454   0.79284   0.49238   0.09960
H          H       0.84622   0.71547   0.00728   0.09490
H          H       0.21916   0.50118   0.21321   0.11928
H          H       0.16810   0.89177   0.30871   0.11672
H          H       0.84764   0.13175   0.35197   0.11378
H          H       0.69440   0.50218   0.57866   0.12409
H          H       0.53280   0.67711  -0.00048   0.09887
H          H       0.67007   0.11121   0.00511   0.12470
H          H       0.65713   0.71910   0.38591   0.09918
H          H       0.16287   0.22450   0.60321   0.09728
H          H       0.06681   0.45908   0.43510   0.10042
H          H       0.67851   0.00794   0.08770   0.12583
H          H       0.30560   0.49781   0.42134   0.12414
H          H       0.16958   0.11171   0.49371   0.12524
H          H       0.83183   0.10824   0.69127   0.11667
H          H       0.46721   0.32287   0.00047   0.09892
H          H       0.87049   0.64337   0.84650   0.11353
H          H       0.82345   0.39623   0.99655   0.12379
H          H       0.69466   0.38644   0.68377   0.11697
H          H       0.65113   0.86776   0.85257   0.11233
H          H       0.68472   0.78905   0.00789   0.09909
H          H       0.96843   0.31957   0.49954   0.09693
H          H       0.24168   0.01427   0.70731   0.11477
H          H       0.93318   0.54094   0.56487   0.10053
H          H       0.30528   0.61356   0.31623   0.11707
H          H       0.80395   0.49856   0.07776   0.12502
H          H       0.32545   0.39411   0.50318   0.12326
H          H       0.32148   0.99205   0.91230   0.12590
H          H       0.81550   0.20718   0.50765   0.09957
H          H       0.33552   0.77652   0.10507   0.09867
H          H       0.17655   0.60377   0.00345   0.12374
H          H       0.36947   0.64216   0.65209   0.11288
H          H       0.15232   0.86816   0.64804   0.11397
H          H       0.33051   0.10971   0.80937   0.11755
H          H       0.26233   0.98620   0.20818   0.11452
H          H       0.15377   0.28452   0.99271   0.09518
H          H       0.56383   0.46252   0.06531   0.09936
H          H       0.63053   0.35784   0.34793   0.11302
H          H       0.65450   0.28170   0.50861   0.09700
H          H       0.34279   0.28095   0.61408   0.09918
H          H       0.82409   0.98996   0.58968   0.12544
H          H       0.31527   0.21094   0.99210   0.09912
H          H       0.72158   0.50231   0.28821   0.11823
H          H       0.67456   0.60589   0.49679   0.12303
H          H       0.75808   0.98577   0.29266   0.11517
H          H       0.59797   0.96567   0.56926   0.09910
H          H       0.27843   0.49768   0.71179   0.11814
H          H       0.00571   0.82127   0.99248   0.09828
H          H       0.83711   0.77548   0.39680   0.09761
H          H       0.03160   0.68047   0.50046   0.09680
H          H       0.43617   0.53746   0.93468   0.09959
H          H       0.83040   0.88828   0.50630   0.12513
H          H       0.32992   0.88880   0.99487   0.12466
H          H       0.17589   0.01003   0.41032   0.12533
H          H       0.19604   0.50144   0.92224   0.12491
H          H       0.15872   0.71588   0.11434   0.09723
H          H       0.34887   0.13224   0.14743   0.11227
H          H       0.99428   0.17872   0.00752   0.09842
H          H       0.50675   0.82200   0.50619   0.09933
H          H       0.09655   0.96464   0.92860   0.09991
H          H       0.19651   0.38697   0.81662   0.11782
H          H       0.80349   0.61303   0.18337   0.11781
H          H       0.66946   0.89027   0.19062   0.11746
H          H       0.12951   0.35662   0.15350   0.11367
C          C       0.26519   0.75440   0.52894  -0.25430
C          C       0.77598   0.62022   0.86686  -0.14793
C          C       0.40552   0.10647   0.85304   0.10643
C          C       0.59794   0.96016   0.08776  -0.15463
C          C       0.58553   0.63909   0.95208  -0.16128
C          C       0.02949   0.56301   0.58292  -0.10286
C          C       0.46797   0.43929   0.08338  -0.10245
C          C       0.40870   0.82963   0.09804   0.09252
C          C       0.02143   0.91161   0.17491   0.54518
C          C       0.57476   0.00068   0.35919  -0.04559
C          C       0.53204   0.56070   0.91661  -0.10229
C          C       0.58339   0.66734   0.39655   0.09039
C          C       0.40205   0.03982   0.91223  -0.15439
C          C       0.60265   0.50852   0.85749  -0.03828
C          C       0.40695   0.89347   0.03685  -0.16599
C          C       0.17807   0.16559   0.07289   0.12821
C          C       0.50064   0.94305   0.58527  -0.09986
C          C       0.54421   0.42120   0.82349   0.54867
C          C       0.38929   0.54235   0.41656  -0.15260
C          C       0.50102   0.96352   0.03118   0.09994
C          C       0.61070   0.45766   0.58343  -0.15269
C          C       0.73484   0.24557   0.47107  -0.25430
C          C       0.05172   0.13785   0.05242  -0.15394
C          C       0.76512   0.75219   0.97049  -0.25174
C          C       0.99535   0.53580   0.03149   0.09908
C          C       0.97050   0.43701   0.41707  -0.10303
C          C       0.77717   0.46146   0.33386  -0.09670
C          C       0.09631   0.96146   0.41140  -0.15310
C          C       0.20695   0.67196   0.57156   0.12697
C          C       0.79759   0.97131   0.83530  -0.09492
C          C       0.09978   0.50908   0.64141  -0.04133
C          C       0.11170   0.45773   0.91685  -0.15499
C          C       0.27407   0.62041   0.63223  -0.15106
C          C       0.08375   0.64198   0.54789  -0.16009
C          C       0.08397   0.66531   0.10331   0.09369
C          C       0.74887   0.88869   0.86939  -0.15492
C          C       0.91627   0.35803   0.45211  -0.16040
C          C       0.90759   0.39787   0.95803  -0.16752
C          C       0.48067   0.08878   0.67380   0.54603
C          C       0.41447   0.36090   0.04791  -0.16114
C          C       0.90671   0.10531   0.64733   0.10678
C          C       0.40863   0.39628   0.54192  -0.16666
C          C       0.29954   0.97116   0.66345  -0.09691
C          C       0.20240   0.02869   0.16470  -0.09487
C          C       0.39736   0.49147   0.14251  -0.03830
C          C       0.49917   0.05703   0.41472  -0.09934
C          C       0.29184   0.32996   0.07215   0.12476
C          C       0.90022   0.49092   0.35858  -0.04135
C          C       0.07712   0.00063   0.14253  -0.04586
C          C       0.44948   0.86265   0.55110  -0.15651
C          C       0.92287  -0.00064   0.85747  -0.04577
C          C       0.09241   0.60213   0.04197  -0.16744
C          C       0.67678   0.16501   0.42760   0.12911
C          C       0.22402   0.37977   0.13314  -0.14805
C          C       0.59304   0.10653   0.96314  -0.16639
C          C       0.96016   0.57794   0.32478   0.54738
C          C       0.88583   0.60762   0.14317   0.10261
C          C       0.09324   0.89470   0.35266   0.10661
C          C       0.74981   0.11119   0.36976  -0.15296
C          C       0.03983   0.42207   0.67520   0.54703
C          C      -0.00093   0.94257   0.91269  -0.09992
C          C       0.45580   0.57879   0.17651   0.54875
C          C       0.59136   0.60373   0.45806  -0.16684
C          C       0.51941   0.91119   0.32633   0.54529
C          C       0.27464   0.46104   0.16735  -0.10087
C          C       0.59128   0.17036   0.90194   0.09284
C          C       0.55041   0.13740   0.44892  -0.15692
C          C       0.11417   0.39238   0.85683   0.10249
C          C       0.70029   0.02889   0.33653  -0.09755
C          C       0.32317   0.83496   0.57242   0.12921
C          C       0.09285   0.10670   0.53612  -0.16787
C          C       0.00093   0.05742   0.08731  -0.09959
C          C       0.49536   0.53622   0.46846   0.09900
C          C       0.90365   0.03854   0.58859  -0.15329
C          C       0.49897   0.03648   0.96881   0.09979
C          C       0.79308   0.32802   0.42844   0.12723
C          C       0.72536   0.53895   0.83264  -0.10083
C          C      -0.00058   0.03615   0.53118   0.10048
C          C       0.72594   0.37958   0.36778  -0.15133
C          C       0.22282   0.53854   0.66614  -0.09702
C          C       0.97856   0.08838   0.82509   0.54528
C          C       0.91602   0.33468   0.89669   0.09357
C          C       0.59446   0.89351   0.14695   0.10655
C          C       0.00464   0.46420   0.96850   0.09907
C          C       0.38702   0.60821   0.35650   0.09881
C          C       0.94827   0.86214   0.94758  -0.15367
C          C       0.41656   0.33269   0.60344   0.09043
C          C       0.25010   0.88880   0.63023  -0.15345
C          C       0.23488   0.24780   0.02951  -0.25200
C          C       0.82192   0.83440   0.92710   0.12799
C          C       0.00056   0.96385   0.46882   0.10047
C          C       0.90920   0.82947   0.40299   0.09508
C          C       0.61295   0.39179   0.64349   0.09859
C          C       0.25113   0.11131   0.13061  -0.15512
C          C       0.50463   0.46379   0.53153   0.09875
C          C       0.09076   0.17052   0.59701   0.09515
C          C       0.90712   0.89330   0.46389  -0.16790
C          C       0.88830   0.54227   0.08315  -0.15496
C          C       0.42510  -0.00061   0.64082  -0.04568
C          C       0.70816   0.67003   0.92784   0.12468
N          N       0.48482   0.66800   0.34517  -0.22524
N          N       0.00066   0.16943   0.65298  -0.23848
N          N       0.49930   0.83031   0.15345  -0.23703
N          N       0.50066   0.16968   0.84654  -0.23700
N          N      -0.00071   0.83058   0.34701  -0.23844
N          N       0.51513   0.33202   0.65482  -0.22520
N          N       0.98414   0.66687   0.15440  -0.23105
N          N       0.01586   0.33312   0.84560  -0.23084
O          O       0.39325   0.90661   0.32646  -0.57528
O          O       0.58273   0.57961   0.17759  -0.57727
O          O       0.89463   0.90994   0.17491  -0.57439
O          O       0.11062   0.83796   0.20192  -0.55600
O          O       0.39094   0.16079   0.70226  -0.55917
O          O       0.60908   0.83927   0.29770  -0.55904
O          O       0.60686   0.09316   0.67389  -0.57582
O          O       0.08746   0.57683   0.32337  -0.57253
O          O       0.12750   0.34652   0.70108  -0.55965
O          O       0.63161   0.34566   0.79736  -0.56043
O          O       0.36840   0.65433   0.20264  -0.56025
O          O       0.10537   0.09003   0.82508  -0.57460
O          O       0.41728   0.42037   0.82241  -0.57718
O          O       0.88939   0.16204   0.79808  -0.55585
O          O       0.91253   0.42322   0.67660  -0.57205
O          O       0.87247   0.65349   0.29891  -0.55958

