data_crystal

_audit_creation_method 'AiiDA-DDEC plugin'

_cell_length_a        15.81715
_cell_length_b        15.81107
_cell_length_c        15.84067

_cell_angle_alpha     103.53385
_cell_angle_beta     103.51796
_cell_angle_gamma     112.18710

_symmetry_space_group_name_Hall 'P 1'
_symmetry_space_group_name_H-M  'P 1'

loop_
_symmetry_equiv_pos_as_xyz
 'x,y,z'

loop_
_atom_site_label
_atom_site_type_symbol
_atom_site_fract_x
_atom_site_fract_y
_atom_site_fract_z
_atom_site_charge
U          U       0.62723   0.09630   0.42680   2.04591
U          U       0.90546   0.37484   0.07416   2.03356
U          U       0.37293   0.90389   0.57352   2.04208
U          U       0.10047   0.63109   0.92771   2.02103
Cu         Cu      0.76672   0.70828   0.51309   0.70525
Cu         Cu      0.29171   0.23307   0.98678   0.67688
Cu         Cu      0.23315   0.29201   0.48696   0.69469
Cu         Cu      0.70834   0.76709   0.01308   0.70891
H          H       0.37595   0.68009   0.37991   0.11732
H          H       0.40102   0.53207   0.35775   0.13944
H          H       0.68960   0.85408   0.49650   0.10694
H          H       0.43267   0.41371   0.34160   0.12822
H          H       0.71035   0.73740   0.32576   0.09599
H          H       0.87392   0.68310   0.68405   0.11091
H          H       0.15319   0.72654   0.66230   0.14110
H          H       0.78199   0.51026   0.48565   0.09804
H          H       0.94308   0.75376   0.22748   0.11864
H          H       0.09931   0.75191   0.51536   0.09652
H          H       0.48446   0.28536   0.34742   0.11691
H          H       0.02868   0.73924   0.37422   0.11245
H          H       0.31994   0.62415   0.12021   0.11768
H          H       0.46798   0.59906   0.14243   0.13945
H          H       0.14608   0.31038   0.00349   0.10795
H          H       0.58625   0.56737   0.15845   0.12852
H          H       0.26266   0.28974   0.17428   0.09556
H          H       0.31677   0.12552   0.81561   0.11122
H          H       0.27337   0.84626   0.83776   0.14097
H          H       0.48973   0.21788   0.01428   0.09812
H          H       0.24618   0.05678   0.27245   0.11893
H          H       0.24785   0.90047   0.98468   0.09390
H          H       0.71448   0.51546   0.15255   0.11623
H          H       0.26082   0.97123   0.12580   0.11157
H          H       0.62391   0.31990   0.61990   0.11702
H          H       0.59886   0.46794   0.64346   0.13902
H          H       0.31022   0.14583   0.50348   0.10701
H          H       0.56732   0.58618   0.65752   0.12765
H          H       0.28974   0.26269   0.67430   0.09609
H          H       0.12548   0.31682   0.31552   0.11169
H          H       0.84651   0.27334   0.33788   0.14182
H          H       0.21792   0.48978   0.51430   0.09761
H          H       0.05685   0.24609   0.77233   0.11969
H          H       0.90086   0.24828   0.48491   0.09668
H          H       0.51549   0.71461   0.65264   0.11650
H          H       0.97130   0.26063   0.62564   0.11330
H          H       0.68005   0.37588   0.88003   0.11876
H          H       0.53203   0.40100   0.85663   0.13978
H          H       0.85401   0.68974   0.99627   0.10767
H          H       0.41397   0.43255   0.84223   0.12878
H          H       0.73730   0.71019   0.82563   0.09590
H          H       0.68330   0.87450   0.18448   0.11103
H          H       0.72665   0.15374   0.16213   0.14146
H          H       0.51061   0.78235   0.98583   0.09850
H          H       0.75391   0.94327   0.72766   0.11909
H          H       0.75203   0.09951   0.01535   0.09756
H          H       0.28575   0.48467   0.84741   0.11817
H          H       0.73928   0.02883   0.87433   0.11288
C          C       0.44946   0.68686   0.40021  -0.05333
C          C       0.46344   0.60442   0.38783  -0.15757
C          C       0.62414   0.78420   0.46444   0.10046
C          C       0.50994   0.43405   0.37250  -0.16134
C          C       0.01679   0.70052   0.68512  -0.09203
C          C       0.52155   0.87149   0.45506   0.62480
C          C       0.91608   0.73682   0.43096   0.15385
C          C       0.78125   0.73958   0.33545   0.08630
C          C       0.53128   0.78099   0.43916  -0.11154
C          C       0.92586   0.69796   0.64873   0.10337
C          C       0.63781   0.38785   0.41801  -0.08710
C          C       0.08155   0.72287   0.63663  -0.03701
C          C       0.70461   0.48733   0.45301   0.09523
C          C       0.91172   0.74786   0.28105  -0.05711
C          C       0.55876   0.61352   0.41658   0.14767
C          C       0.05057   0.73618   0.55375  -0.16315
C          C       0.53844   0.36184   0.37529  -0.03885
C          C       0.95690   0.72857   0.51864   0.14335
C          C       0.58133   0.53245   0.41198   0.15210
C          C       0.67271   0.31353   0.42631   0.59169
C          C       0.04332   0.67899   0.76965   0.53700
C          C       0.95934   0.74155   0.36289  -0.17146
C          C       0.76086   0.74945   0.17954   0.54930
C          C       0.81985   0.74568   0.26541  -0.07171
C          C       0.31332   0.55065   0.10001  -0.05272
C          C       0.39571   0.53659   0.11215  -0.15710
C          C       0.21598   0.37583   0.03558   0.09941
C          C       0.56586   0.49004   0.12763  -0.16075
C          C       0.29943   0.98253   0.81465  -0.08787
C          C       0.12886   0.47866   0.04475   0.62574
C          C       0.26324   0.08387   0.06899   0.15320
C          C       0.26045   0.21879   0.16459   0.08576
C          C       0.21938   0.46875   0.06069  -0.10753
C          C       0.30200   0.07354   0.85095   0.10246
C          C       0.61208   0.36208   0.08229  -0.08405
C          C       0.27714   0.91797   0.86339  -0.03976
C          C       0.51263   0.29528   0.04694   0.09465
C          C       0.25206   0.08819   0.21890  -0.05738
C          C       0.38647   0.44123   0.08351   0.15069
C          C       0.26378   0.94914   0.94621  -0.16281
C          C       0.63805   0.46144   0.12471  -0.03895
C          C       0.27144   0.04291   0.98129   0.14496
C          C       0.46759   0.41861   0.08803   0.15396
C          C       0.68624   0.32684   0.07357   0.59505
C          C       0.32040   0.95561   0.72987   0.53767
C          C       0.25848   0.04058   0.13709  -0.17121
C          C       0.25035   0.23907   0.32043   0.54825
C          C       0.25428   0.18013   0.23457  -0.06955
C          C       0.55041   0.31314   0.59984  -0.05441
C          C       0.53642   0.39556   0.61256  -0.15800
C          C       0.37570   0.21570   0.53513   0.09964
C          C       0.49001   0.56588   0.62705  -0.16195
C          C       0.98267   0.29946   0.31474  -0.08719
C          C       0.47832   0.12845   0.54474   0.62515
C          C       0.08399   0.26320   0.56895   0.15467
C          C       0.21880   0.26042   0.66449   0.08706
C          C       0.46857   0.21891   0.56046  -0.11336
C          C       0.07362   0.30187   0.35091   0.10261
C          C       0.36209   0.61214   0.58200  -0.08779
C          C       0.91817   0.27703   0.36341  -0.03673
C          C       0.29528   0.51265   0.54693   0.09539
C          C       0.08825   0.25200   0.71879  -0.05532
C          C       0.44107   0.38648   0.58340   0.14756
C          C       0.94947   0.26400   0.44639  -0.16160
C          C       0.46153   0.63811   0.62454  -0.04085
C          C       0.04314   0.27158   0.48132   0.14515
C          C       0.41858   0.46742   0.58768   0.15044
C          C       0.32717   0.68641   0.57378   0.59029
C          C       0.95568   0.32057   0.22994   0.53801
C          C       0.04064   0.25833   0.63694  -0.17056
C          C       0.23916   0.25067   0.82045   0.54868
C          C       0.18009   0.25421   0.73445  -0.07047
C          C       0.68676   0.44945   0.89995  -0.05166
C          C       0.60433   0.46351   0.88742  -0.15678
C          C       0.78410   0.62430   0.96450   0.09773
C          C       0.43440   0.50993   0.87266  -0.15922
C          C       0.70071   0.01747   0.18542  -0.08985
C          C       0.87175   0.52225   0.95480   0.62647
C          C       0.73678   0.91612   0.93104   0.15264
C          C       0.73957   0.78118   0.83546   0.08659
C          C       0.78071   0.53148   0.93899  -0.10714
C          C       0.69799   0.92640   0.14906   0.10263
C          C       0.38823   0.63792   0.91771  -0.08581
C          C       0.72282   0.08196   0.13662  -0.03850
C          C       0.48756   0.70493   0.95304   0.09655
C          C       0.74798   0.91184   0.78119  -0.05773
C          C       0.61366   0.55894   0.91653   0.14852
C          C       0.73619   0.05081   0.05378  -0.16232
C          C       0.36225   0.53846   0.87527  -0.04011
C          C       0.72837   0.95699   0.01866   0.14296
C          C       0.53266   0.58153   0.91223   0.15430
C          C       0.31318   0.67128   0.92671   0.58817
C          C       0.67936   0.04424   0.27011   0.53679
C          C       0.74156   0.95944   0.86299  -0.16942
C          C       0.74940   0.76084   0.67957   0.55021
C          C       0.74569   0.81988   0.76549  -0.07168
N          N       0.89590   0.70934   0.56793  -0.26298
N          N       0.82790   0.73754   0.41595  -0.30048
N          N       0.67799   0.55766   0.45206  -0.28967
N          N       0.63747   0.70469   0.45452  -0.26516
N          N       0.29080   0.10377   0.93185  -0.26040
N          N       0.26250   0.17209   0.08405  -0.29509
N          N       0.44232   0.32199   0.04781  -0.28632
N          N       0.29546   0.36246   0.04554  -0.26034
N          N       0.10389   0.29062   0.43178  -0.26136
N          N       0.17225   0.26269   0.58406  -0.29622
N          N       0.32178   0.44228   0.54820  -0.29024
N          N       0.36236   0.29514   0.54445  -0.26366
N          N       0.70937   0.89625   0.06824  -0.26444
N          N       0.73738   0.82781   0.91594  -0.30123
N          N       0.55783   0.67826   0.95177  -0.29182
N          N       0.70469   0.63765   0.95536  -0.26346
O          O       0.44026   0.86961   0.46129  -0.72861
O          O       0.59327   0.95083   0.46313  -0.69618
O          O       0.98429   0.65785   0.81435  -0.63872
O          O       0.12596   0.67686   0.79806  -0.62667
O          O       0.60195   0.22528   0.40574  -0.71138
O          O       0.76163   0.33575   0.45485  -0.56200
O          O       0.80958   0.78632   0.13108  -0.56881
O          O       0.67020   0.71783   0.16033  -0.56847
O          O       0.13098   0.56004   0.03893  -0.72457
O          O       0.04949   0.40639   0.03587  -0.69261
O          O       0.34074   0.01483   0.68497  -0.64647
O          O       0.32366   0.87364   0.70188  -0.62133
O          O       0.77437   0.39692   0.09337  -0.71244
O          O       0.66361   0.23786   0.04537  -0.55986
O          O       0.21367   0.19031   0.36894  -0.56640
O          O       0.28195   0.32977   0.33974  -0.56780
O          O       0.55976   0.13034   0.53873  -0.72966
O          O       0.40655   0.04907   0.53652  -0.69390
O          O       0.01489   0.34082   0.18507  -0.64751
O          O       0.87413   0.32458   0.20241  -0.61985
O          O       0.39791   0.77470   0.59430  -0.71172
O          O       0.23829   0.66428   0.54522  -0.56234
O          O       0.19066   0.21455   0.86934  -0.56331
O          O       0.32972   0.28191   0.83927  -0.56728
O          O       0.86945   0.44108   0.96197  -0.72636
O          O       0.95095   0.59341   0.96257  -0.69137
O          O       0.65895   0.98495   0.31486  -0.64646
O          O       0.67631   0.12628   0.29815  -0.62167
O          O       0.22592   0.59925   0.90705  -0.70357
O          O       0.33292   0.75960   0.95548  -0.56336
O          O       0.78555   0.80942   0.63070  -0.56860
O          O       0.71825   0.67027   0.66069  -0.56720

