data_crystal

_audit_creation_method 'AiiDA-DDEC plugin'

_cell_length_a        13.78944
_cell_length_b        15.20277
_cell_length_c        15.70663

_cell_angle_alpha     93.75190
_cell_angle_beta     112.84793
_cell_angle_gamma     90.43736

_symmetry_space_group_name_Hall 'P 1'
_symmetry_space_group_name_H-M  'P 1'

loop_
_symmetry_equiv_pos_as_xyz
 'x,y,z'

loop_
_atom_site_label
_atom_site_type_symbol
_atom_site_fract_x
_atom_site_fract_y
_atom_site_fract_z
_atom_site_charge
Eu         Eu      0.49868   0.00983   0.12836   1.67004
Eu         Eu      0.88878   0.47500   0.87615   1.66039
Eu         Eu      0.50122   0.99002   0.87175   1.67088
Eu         Eu      0.11098   0.52460   0.12396   1.66080
H          H       0.85628   0.97151   0.37244   0.12191
H          H       0.98511   0.90750   0.51532   0.11589
H          H       0.72623   0.79076   0.56195   0.11064
H          H       0.59865   0.85231   0.41827   0.12419
H          H       0.23799   0.76601   0.02607   0.11593
H          H       0.98155   0.70021   0.76696   0.11917
H          H       0.21165   0.90561   0.78848   0.14129
H          H       0.32514   0.17251   0.16355   0.09279
H          H       0.15750   0.18090   0.18915   0.12149
H          H       0.09711   0.04937   0.24813   0.11147
H          H       0.21134   0.91715   0.28182   0.12132
H          H       0.37777   0.92131   0.25383   0.09745
H          H       0.70926   0.56594   0.54708   0.12580
H          H       0.71460   0.62717   0.40457   0.10572
H          H       0.05266   0.61413   0.51887   0.11774
H          H       0.04615   0.55098   0.65948   0.12168
H          H       0.88684   0.59032   0.19081   0.14135
H          H       0.68174   0.79849   0.20993   0.12980
H          H       0.71669   0.73413   0.95330   0.12283
H          H       0.72519   0.27678   0.83615   0.08983
H          H       0.53824   0.22760   0.79915   0.13354
H          H       0.39727   0.33950   0.74677   0.09853
H          H       0.45038   0.49473   0.73256   0.11884
H          H       0.64051   0.53173   0.77080   0.10424
H          H       0.88969   0.77662   0.66956   0.06546
H          H       0.96116   0.65550   0.35840   0.09571
H          H       0.14380   0.02862   0.62743   0.12151
H          H       0.01479   0.09243   0.48438   0.11600
H          H       0.27384   0.20930   0.43773   0.11159
H          H       0.40123   0.14807   0.58171   0.12411
H          H       0.76079   0.23411   0.97411   0.11707
H          H       0.01818   0.29927   0.23244   0.11908
H          H       0.78801   0.09380   0.21153   0.14161
H          H       0.67464   0.82754   0.83641   0.09277
H          H       0.84236   0.81922   0.81086   0.12142
H          H       0.90271   0.95072   0.75189   0.11120
H          H       0.78846   0.08290   0.71813   0.12157
H          H       0.62194   0.07877   0.74615   0.09688
H          H       0.29079   0.43387   0.45281   0.12587
H          H       0.28548   0.37287   0.59547   0.10591
H          H       0.94743   0.38603   0.48123   0.11746
H          H       0.95395   0.44889   0.34046   0.12147
H          H       0.11328   0.40942   0.80934   0.14115
H          H       0.31859   0.20143   0.78994   0.13020
H          H       0.28352   0.26528   0.04655   0.12354
H          H       0.27441   0.72319   0.16328   0.08987
H          H       0.46144   0.77245   0.20074   0.13259
H          H       0.60245   0.66051   0.25327   0.09886
H          H       0.54920   0.50529   0.26741   0.11944
H          H       0.35901   0.46827   0.22864   0.10432
H          H       0.11006   0.22345   0.33021   0.06578
H          H       0.03895   0.34447   0.64162   0.09569
C          C       0.64256   0.95675   0.30573   0.54460
C          C       0.72009   0.91628   0.38795  -0.00624
C          C       0.82930   0.93110   0.41426  -0.09497
C          C       0.90050   0.89583   0.49307  -0.11138
C          C       0.86349   0.84557   0.54757   0.05994
C          C       0.75413   0.82928   0.51936  -0.12252
C          C       0.68313   0.86383   0.44018  -0.09326
C          C       0.93141   0.81447   0.63604   0.07227
C          C       0.33134   0.89348   0.97405   0.61318
C          C       0.23488   0.84059   0.91319  -0.02671
C          C       0.19619   0.77670   0.95341  -0.08134
C          C       0.10536   0.72603   0.90004  -0.02956
C          C       0.05140   0.74138   0.80690  -0.17098
C          C       0.08670   0.80855   0.76646   0.20361
C          C       0.18174   0.85587   0.81989  -0.15004
C          C       0.06495   0.65586   0.94257   0.62036
C          C       0.29771   0.11808   0.19107   0.09459
C          C       0.20384   0.12202   0.20507  -0.14310
C          C       0.17066   0.04904   0.23762  -0.03628
C          C       0.23366   0.97553   0.25620  -0.13910
C          C       0.32646   0.97720   0.24054   0.09737
C          C       0.87154   0.51340   0.69317   0.55246
C          C       0.87724   0.55328   0.61066  -0.00812
C          C       0.78347   0.57643   0.53941  -0.10577
C          C       0.78653   0.61044   0.46078  -0.11155
C          C       0.88351   0.62354   0.45182   0.05269
C          C       0.97745   0.60361   0.52486  -0.11409
C          C       0.97422   0.56825   0.60347  -0.10210
C          C       0.88530   0.65383   0.36611   0.08496
C          C       0.84261   0.59875   0.00644   0.60031
C          C       0.80622   0.65773   0.06695  -0.01905
C          C       0.83385   0.64276   0.16023  -0.17289
C          C       0.78857   0.69381   0.21275   0.20450
C          C       0.71881   0.76028   0.17069  -0.14680
C          C       0.69533   0.77731   0.07869  -0.03019
C          C       0.73775   0.72483   0.02625  -0.08489
C          C       0.62058   0.84911   0.03773   0.62521
C          C       0.66146   0.32254   0.81186   0.08927
C          C       0.55744   0.29551   0.79156  -0.13383
C          C       0.47939   0.35777   0.76262  -0.03322
C          C       0.50845   0.44400   0.75439  -0.14327
C          C       0.61430   0.46525   0.77571   0.09153
C          C       0.35741   0.04522   0.69486   0.54525
C          C       0.27969   0.08433   0.61192  -0.00666
C          C       0.17060   0.06903   0.58550  -0.09388
C          C       0.09940   0.10413   0.50660  -0.11218
C          C       0.13645   0.15442   0.45212   0.06088
C          C       0.24579   0.17078   0.48024  -0.12371
C          C       0.31673   0.13650   0.55957  -0.09263
C          C       0.06841   0.18553   0.36376   0.07110
C          C       0.66851   0.10514   0.02541   0.61175
C          C       0.76425   0.15899   0.08674  -0.02739
C          C       0.80279   0.22331   0.04676  -0.08188
C          C       0.89393   0.27378   0.10028  -0.02885
C          C       0.94807   0.25815   0.19319  -0.17134
C          C       0.91279   0.19098   0.23359   0.20507
C          C       0.81771   0.14365   0.18009  -0.15035
C          C       0.93535   0.34379   0.05824   0.61988
C          C       0.70205   0.88199   0.80889   0.09455
C          C       0.79595   0.87807   0.79494  -0.14258
C          C       0.82913   0.95104   0.76235  -0.03487
C          C       0.76609   0.02454   0.74374  -0.13927
C          C       0.67325   0.02286   0.75937   0.09652
C          C       0.12841   0.48656   0.30682   0.55110
C          C       0.12279   0.44652   0.38928  -0.00741
C          C       0.21657   0.42344   0.46051  -0.10551
C          C       0.21358   0.38958   0.53921  -0.11184
C          C       0.11663   0.37659   0.54827   0.05344
C          C       0.02265   0.39642   0.47522  -0.11394
C          C       0.02583   0.43163   0.39653  -0.10221
C          C       0.11486   0.34624   0.63396   0.08512
C          C       0.15774   0.40098   0.99377   0.59789
C          C       0.19383   0.34197   0.93305  -0.01736
C          C       0.16631   0.35697   0.83983  -0.17286
C          C       0.21165   0.30603   0.78727   0.20487
C          C       0.28148   0.23952   0.82926  -0.14566
C          C       0.30460   0.22238   0.92118  -0.03025
C          C       0.26220   0.27480   0.97363  -0.08615
C          C       0.37895   0.15057   0.96270   0.62496
C          C       0.33815   0.67747   0.18768   0.08875
C          C       0.44225   0.70450   0.20825  -0.13453
C          C       0.52030   0.64226   0.23729  -0.03340
C          C       0.49116   0.55602   0.24541  -0.14374
C          C       0.38527   0.53475   0.22385   0.09211
N          N       0.03131   0.83468   0.67655  -0.27969
N          N       0.35850   0.04693   0.20784  -0.32573
N          N       0.79933   0.67656   0.30155  -0.24260
N          N       0.69051   0.40589   0.80470  -0.33217
N          N       0.96854   0.16498   0.32347  -0.27947
N          N       0.64119   0.95312   0.79207  -0.32876
N          N       0.20078   0.32344   0.69848  -0.24223
N          N       0.30907   0.59409   0.19472  -0.33144
O          O       0.54828   0.92365   0.26951  -0.57417
O          O       0.67075   0.02200   0.27246  -0.57256
O          O       0.35454   0.89786   0.06098  -0.58883
O          O       0.38520   0.93343   0.93706  -0.66687
O          O       0.98500   0.61090   0.88705  -0.60818
O          O       0.11211   0.64726   0.02915  -0.63956
O          O       0.94129   0.45954   0.73676  -0.59942
O          O       0.79716   0.53538   0.71838  -0.56260
O          O       0.92403   0.55268   0.04339  -0.68107
O          O       0.78923   0.59368   0.91965  -0.56991
O          O       0.57771   0.88371   0.08943  -0.61094
O          O       0.60508   0.86987   0.95625  -0.63426
O          O       0.45024   0.08094   0.73217  -0.57103
O          O       0.33077   0.97866   0.72747  -0.57558
O          O       0.64416   0.10265   0.93836  -0.58655
O          O       0.61614   0.06199   0.06153  -0.66788
O          O       0.01721   0.38730   0.11278  -0.60935
O          O       0.88634   0.35339   0.97206  -0.63958
O          O       0.05844   0.54020   0.26313  -0.59942
O          O       0.20293   0.46473   0.28168  -0.56275
O          O       0.07573   0.44651   0.95703  -0.68081
O          O       0.21209   0.40658   0.08036  -0.56711
O          O       0.42291   0.11590   0.91204  -0.61406
O          O       0.39348   0.12983   0.04404  -0.63745

