data_crystal

_audit_creation_method 'AiiDA-DDEC plugin'

_cell_length_a        14.13016
_cell_length_b        20.19217
_cell_length_c        20.04661

_cell_angle_alpha     90.20618
_cell_angle_beta     90.00449
_cell_angle_gamma     90.03568

_symmetry_space_group_name_Hall 'P 1'
_symmetry_space_group_name_H-M  'P 1'

loop_
_symmetry_equiv_pos_as_xyz
 'x,y,z'

loop_
_atom_site_label
_atom_site_type_symbol
_atom_site_fract_x
_atom_site_fract_y
_atom_site_fract_z
_atom_site_charge
Ba         Ba      0.36778   0.39740   0.28068   1.62465
Ba         Ba      0.13234   0.60229   0.78219   1.62530
Ba         Ba      0.63263   0.89745   0.21829   1.62422
Ba         Ba      0.86733   0.10288   0.72017   1.62329
Ba         Ba      0.63223   0.60260   0.71932   1.62449
Ba         Ba      0.86767   0.39771   0.21781   1.62546
Ba         Ba      0.36738   0.10254   0.78171   1.62418
Ba         Ba      0.13268   0.89712   0.27983   1.62337
Cd         Cd      0.12088   0.44846   0.26272   0.95560
Cd         Cd      0.37895   0.55146   0.76358   0.95390
Cd         Cd      0.87861   0.94867   0.23637   0.95793
Cd         Cd      0.62116   0.05138   0.73693   0.95769
Cd         Cd      0.87913   0.55154   0.73728   0.95561
Cd         Cd      0.62106   0.44854   0.23642   0.95397
Cd         Cd      0.12140   0.05133   0.76363   0.95798
Cd         Cd      0.37885   0.94861   0.26308   0.95771
H          H       0.25541   0.20282   0.26597   0.12435
H          H       0.19524   0.07908   0.26218   0.14499
H          H       0.41131   0.51378   0.12672   0.13340
H          H       0.46187   0.55237   0.00526   0.13749
H          H       0.24463   0.79758   0.76682   0.12438
H          H       0.30485   0.92121   0.76181   0.14500
H          H       0.08882   0.48624   0.62694   0.13343
H          H       0.03798   0.44793   0.50538   0.13640
H          H       0.74416   0.70283   0.23306   0.12458
H          H       0.80441   0.57943   0.23825   0.14553
H          H       0.58802   0.01350   0.37334   0.13237
H          H       0.53747   0.05240   0.49472   0.13525
H          H       0.75588   0.29685   0.73398   0.12455
H          H       0.69552   0.42034   0.73767   0.14457
H          H       0.91197   0.98636   0.87359   0.13299
H          H       0.96248   0.94732   0.99485   0.13618
H          H       0.74460   0.79718   0.73403   0.12404
H          H       0.80477   0.92092   0.73782   0.14486
H          H       0.58870   0.48621   0.87328   0.13320
H          H       0.53814   0.44762   0.99474   0.13728
H          H       0.75538   0.20242   0.23318   0.12477
H          H       0.69516   0.07878   0.23819   0.14523
H          H       0.91119   0.51376   0.37306   0.13361
H          H       0.96203   0.55206   0.49462   0.13656
H          H       0.25585   0.29717   0.76694   0.12486
H          H       0.19560   0.42057   0.76175   0.14558
H          H       0.41199   0.98649   0.62666   0.13254
H          H       0.46254   0.94760   0.50528   0.13550
H          H       0.24413   0.70314   0.26602   0.12424
H          H       0.30449   0.57966   0.26233   0.14449
H          H       0.08804   0.01363   0.12641   0.13283
H          H       0.03753   0.05268   0.00515   0.13582
C          C       0.11523   0.30654   0.25112   0.63755
C          C       0.10898   0.23400   0.25115  -0.14337
C          C       0.18195   0.18846   0.25926  -0.09833
C          C       0.14995   0.12236   0.25777  -0.09510
C          C       0.05262   0.11812   0.24872  -0.11328
C          C       0.99289   0.05862   0.24427   0.59514
C          C       0.21592   0.47523   0.14542   0.59179
C          C       0.26939   0.49800   0.08698  -0.13510
C          C       0.36441   0.51590   0.08384  -0.10583
C          C       0.39142   0.53619   0.01943  -0.11137
C          C       0.31698   0.53320   0.97410  -0.13184
C          C       0.32027   0.54630   0.90183   0.60586
C          C       0.38475   0.69353   0.75352   0.63983
C          C       0.39091   0.76608   0.75207  -0.14362
C          C       0.31805   0.81180   0.75980  -0.09921
C          C       0.35009   0.87785   0.75756  -0.09463
C          C       0.44738   0.88189   0.74826  -0.11280
C          C       0.50712   0.94134   0.74385   0.59626
C          C       0.28408   0.52481   0.64585   0.59491
C          C       0.23077   0.50201   0.58719  -0.13445
C          C       0.13566   0.48427   0.58400  -0.10858
C          C       0.10850   0.46411   0.51944  -0.11051
C          C       0.18288   0.46683   0.47410  -0.13028
C          C       0.18059   0.45250   0.40190   0.60477
C          C       0.88419   0.80732   0.24655   0.63827
C          C       0.89040   0.73470   0.24797  -0.14445
C          C       0.81762   0.68884   0.24018  -0.09787
C          C       0.84970   0.62280   0.24243  -0.09646
C          C       0.94698   0.61872   0.25169  -0.11185
C          C       0.00716   0.55935   0.25599   0.59312
C          C       0.78396   0.97606   0.35428   0.59254
C          C       0.73045  -0.00111   0.41286  -0.13251
C          C       0.63516   0.01612   0.41610  -0.10953
C          C       0.60816   0.03678   0.48053  -0.10947
C          C       0.68285   0.03509   0.52568  -0.13134
C          C       0.68055   0.05004   0.59776   0.60445
C          C       0.61561   0.19262   0.74898   0.63563
C          C       0.60941   0.26525   0.74880  -0.14243
C          C       0.68233   0.31092   0.74068  -0.09693
C          C       0.65027   0.37701   0.74214  -0.09801
C          C       0.55297   0.38128   0.75119  -0.11159
C          C       0.49293   0.44073   0.75565   0.59439
C          C       0.71597   0.02350   0.85460   0.59188
C          C       0.76970   0.00100   0.91311  -0.13345
C          C       0.86492   0.98371   0.91637  -0.10904
C          C       0.89189   0.96313   0.98069  -0.10824
C          C       0.81725   0.96526   0.02590  -0.13420
C          C       0.82022   0.95120   0.09804   0.60512
C          C       0.88478   0.69345   0.74888   0.63767
C          C       0.89103   0.76600   0.74886  -0.14344
C          C       0.81806   0.81154   0.74074  -0.09832
C          C       0.85006   0.87764   0.74223  -0.09563
C          C       0.94739   0.88188   0.75128  -0.11327
C          C       0.00712   0.94138   0.75573   0.59505
C          C       0.78409   0.52477   0.85458   0.59165
C          C       0.73062   0.50199   0.91302  -0.13500
C          C       0.63560   0.48409   0.91616  -0.10604
C          C       0.60859   0.46381   0.98057  -0.11144
C          C       0.68303   0.46679   0.02590  -0.13202
C          C       0.67974   0.45370   0.09817   0.60598
C          C       0.61526   0.30647   0.24648   0.64002
C          C       0.60910   0.23392   0.24793  -0.14361
C          C       0.68196   0.18819   0.24020  -0.09920
C          C       0.64992   0.12214   0.24244  -0.09436
C          C       0.55263   0.11811   0.25174  -0.11293
C          C       0.49289   0.05866   0.25615   0.59661
C          C       0.71593   0.47519   0.35415   0.59506
C          C       0.76924   0.49799   0.41281  -0.13444
C          C       0.86435   0.51573   0.41600  -0.10841
C          C       0.89151   0.53589   0.48056  -0.11026
C          C       0.81713   0.53317   0.52590  -0.13022
C          C       0.81942   0.54750   0.59810   0.60472
C          C       0.11582   0.19268   0.75345   0.63778
C          C       0.10961   0.26530   0.75203  -0.14387
C          C       0.18239   0.31116   0.75982  -0.09780
C          C       0.15031   0.37720   0.75757  -0.09620
C          C       0.05303   0.38128   0.74831  -0.11226
C          C       0.99285   0.44065   0.74401   0.59347
C          C       0.21605   0.02394   0.64572   0.59277
C          C       0.26956   0.00110   0.58714  -0.13270
C          C       0.36485   0.98388   0.58390  -0.10932
C          C       0.39185   0.96322   0.51947  -0.10923
C          C       0.31716   0.96491   0.47432  -0.13127
C          C       0.31946   0.94996   0.40224   0.60410
C          C       0.38440   0.80737   0.25102   0.63561
C          C       0.39060   0.73475   0.25120  -0.14246
C          C       0.31768   0.68907   0.25932  -0.09711
C          C       0.34973   0.62299   0.25786  -0.09811
C          C       0.44703   0.61871   0.24882  -0.11157
C          C       0.50708   0.55927   0.24435   0.59414
C          C       0.28404   0.97649   0.14540   0.59153
C          C       0.23031  -0.00100   0.08689  -0.13294
C          C       0.13509   0.01629   0.08363  -0.10945
C          C       0.10812   0.03687   0.01931  -0.10837
C          C       0.18276   0.03473   0.97410  -0.13418
C          C       0.17979   0.04879   0.90196   0.60511
S          S       0.00086   0.19515   0.24165   0.15990
S          S       0.21339   0.50636   0.01085   0.19174
S          S       0.49900   0.80471   0.74168   0.15966
S          S       0.28664   0.49343   0.51102   0.19301
S          S      -0.00149   0.69606   0.25835   0.15837
S          S       0.78661   0.00857   0.48880   0.19234
S          S       0.50129   0.30411   0.75828   0.15842
S          S       0.71360   0.99194   0.98914   0.19121
S          S      -0.00085   0.80484   0.75835   0.16070
S          S       0.78662   0.49363   0.98915   0.19241
S          S       0.50101   0.19529   0.25832   0.15897
S          S       0.71337   0.50656   0.48898   0.19235
S          S       0.00150   0.30393   0.74165   0.15774
S          S       0.21340   0.99143   0.51120   0.19184
S          S       0.49872   0.69589   0.24172   0.15893
S          S       0.28641   0.00805   0.01086   0.19166
O          O       0.03864   0.34040   0.24282  -0.68665
O          O       0.19581   0.33378   0.26001  -0.64796
O          O       0.90534   0.06472   0.23220  -0.52592
O          O       0.03301   0.00169   0.25240  -0.66688
O          O       0.26216   0.46811   0.20121  -0.67057
O          O       0.12807   0.46446   0.14138  -0.54068
O          O       0.40134   0.55583   0.87552  -0.53546
O          O       0.24239   0.54574   0.86881  -0.69057
O          O       0.46112   0.65960   0.74440  -0.68527
O          O       0.30455   0.66639   0.76427  -0.65044
O          O       0.59434   0.93536   0.73057  -0.52501
O          O       0.46723   0.99817   0.75365  -0.66858
O          O       0.23723   0.53216   0.70127  -0.67319
O          O       0.37205   0.53546   0.64257  -0.54152
O          O       0.09988   0.44429   0.37443  -0.53526
O          O       0.25950   0.45065   0.37023  -0.69090
O          O       0.96037   0.84148   0.25568  -0.68321
O          O       0.80406   0.83454   0.23582  -0.65065
O          O       0.09428   0.56589   0.26911  -0.52401
O          O       0.96778   0.50213   0.24630  -0.66792
O          O       0.73712   0.96876   0.29881  -0.67336
O          O       0.87182   0.96538   0.35771  -0.54000
O          O       0.60007   0.06026   0.62484  -0.53792
O          O       0.75926   0.05037   0.62979  -0.69074
O          O       0.53918   0.15856   0.75728  -0.68385
O          O       0.69613   0.16527   0.74021  -0.64858
O          O       0.40548   0.43412   0.76758  -0.52496
O          O       0.53268   0.49798   0.74763  -0.66796
O          O       0.76221   0.03054   0.79877  -0.67168
O          O       0.62818   0.03409   0.85869  -0.54053
O          O       0.90075   0.93961   0.12430  -0.53745
O          O       0.74239   0.95297   0.13111  -0.69083
O          O       0.96137   0.65960   0.75718  -0.68628
O          O       0.80420   0.66622   0.73999  -0.64845
O          O       0.09467   0.93527   0.76780  -0.52533
O          O       0.96700   0.99831   0.74760  -0.66721
O          O       0.73785   0.53189   0.79879  -0.67096
O          O       0.87194   0.53554   0.85862  -0.54012
O          O       0.59867   0.44417   0.12448  -0.53597
O          O       0.75762   0.45425   0.13119  -0.69020
O          O       0.53889   0.34040   0.25560  -0.68579
O          O       0.69546   0.33360   0.23573  -0.65016
O          O       0.40567   0.06464   0.26943  -0.52562
O          O       0.53278   0.00182   0.24635  -0.66835
O          O       0.76278   0.46784   0.29873  -0.67281
O          O       0.62796   0.46454   0.35743  -0.54217
O          O       0.90013   0.55571   0.62557  -0.53480
O          O       0.74051   0.54934   0.62977  -0.69126
O          O       0.03964   0.15851   0.74432  -0.68339
O          O       0.19595   0.16545   0.76418  -0.65003
O          O       0.90573   0.43411   0.73089  -0.52448
O          O       0.03223   0.49787   0.75370  -0.66789
O          O       0.26289   0.03124   0.70119  -0.67304
O          O       0.12819   0.03462   0.64230  -0.54066
O          O       0.39994   0.93973   0.37516  -0.53718
O          O       0.24075   0.94963   0.37021  -0.69119
O          O       0.46083   0.84144   0.24272  -0.68355
O          O       0.30388   0.83473   0.25979  -0.64895
O          O       0.59453   0.56588   0.23242  -0.52441
O          O       0.46733   0.50202   0.25237  -0.66814
O          O       0.23780   0.96946   0.20123  -0.67198
O          O       0.37183   0.96591   0.14132  -0.53985
O          O       0.09926   0.06039   0.87570  -0.53804
O          O       0.25762   0.04702   0.86889  -0.69035

