data_crystal

_audit_creation_method 'AiiDA-DDEC plugin'

_cell_length_a        13.28500
_cell_length_b        14.03694
_cell_length_c        18.91091

_cell_angle_alpha     90.70156
_cell_angle_beta     108.56977
_cell_angle_gamma     94.03536

_symmetry_space_group_name_Hall 'P 1'
_symmetry_space_group_name_H-M  'P 1'

loop_
_symmetry_equiv_pos_as_xyz
 'x,y,z'

loop_
_atom_site_label
_atom_site_type_symbol
_atom_site_fract_x
_atom_site_fract_y
_atom_site_fract_z
_atom_site_charge
Cd         Cd      0.93316   0.46452   0.19538   0.89048
Cd         Cd      0.47191   0.88997   0.58074   0.97714
Cd         Cd      0.06684   0.53547   0.80463   0.89046
Cd         Cd      0.52809   0.11003   0.41926   0.97717
H          H       0.18069   0.43680   0.17231   0.10853
H          H       0.87667   0.40077   0.01027   0.10592
H          H       0.02378   0.32670   0.95101   0.13813
H          H       0.19678   0.35610   0.94231   0.16422
H          H       0.48493   0.22208   0.05676   0.15014
H          H       0.28059   0.30841   0.17834   0.12271
H          H       0.35101   0.16377   0.24260   0.11951
H          H       0.61401   0.27793   0.17908   0.14375
H          H       0.68563   0.20153   0.32050   0.12189
H          H       0.20522   0.28641   0.84282   0.11056
H          H       0.49743   0.24223   0.80895   0.09513
H          H       0.53243   0.25757   0.96047   0.13184
H          H       0.05973   0.44667   0.37465   0.11619
H          H       0.11404   0.26360   0.21485   0.12218
H          H       0.26692   0.23949   0.35235   0.14585
H          H       0.27928   0.61438   0.59460   0.14597
H          H       0.18680   0.69002   0.69381   0.12298
H          H       0.15576   0.39033   0.70078   0.09864
H          H       0.19085   0.48794   0.48870   0.15196
H          H       0.25493   0.19525   0.46035   0.14362
H          H       0.31086   0.31648   0.68176   0.13937
H          H       0.39006   0.10869   0.51780   0.11785
H          H       0.28998   0.15816   0.70645   0.12862
H          H       0.36292   0.97699   0.71092   0.11847
H          H       0.81931   0.56319   0.82769   0.10850
H          H       0.12333   0.59923   0.98973   0.10592
H          H       0.97622   0.67329   0.04899   0.13811
H          H       0.80322   0.64390   0.05769   0.16430
H          H       0.51507   0.77791   0.94324   0.15006
H          H       0.71941   0.69158   0.82166   0.12261
H          H       0.64899   0.83622   0.75740   0.11952
H          H       0.38599   0.72206   0.82092   0.14383
H          H       0.31437   0.79846   0.67950   0.12184
H          H       0.79478   0.71359   0.15719   0.11054
H          H       0.50257   0.75777   0.19105   0.09513
H          H       0.46757   0.74242   0.03953   0.13189
H          H       0.94027   0.55333   0.62536   0.11623
H          H       0.88596   0.73640   0.78515   0.12211
H          H       0.73308   0.76050   0.64765   0.14577
H          H       0.72072   0.38562   0.40540   0.14611
H          H       0.81320   0.30998   0.30619   0.12303
H          H       0.84424   0.60967   0.29922   0.09851
H          H       0.80915   0.51206   0.51130   0.15209
H          H       0.74507   0.80474   0.53965   0.14360
H          H       0.68914   0.68352   0.31824   0.13935
H          H       0.60994   0.89130   0.48220   0.11782
H          H       0.71002   0.84183   0.29355   0.12864
H          H       0.63708   0.02301   0.28908   0.11824
C          C       0.11682   0.41615   0.12132   0.07495
C          C       0.96170   0.39631   0.03486  -0.03077
C          C       0.03289   0.35929   0.00517  -0.09154
C          C       0.22709   0.33269   0.05948   0.19951
C          C       0.24882   0.32636   0.99228  -0.24821
C          C       0.34156   0.28544   0.99134   0.21889
C          C       0.41299   0.25399   0.05700  -0.26054
C          C       0.38984   0.26299   0.12360   0.19587
C          C       0.29699   0.30173   0.12587  -0.29378
C          C       0.43244   0.18500   0.24617   0.08407
C          C       0.57178   0.24201   0.21314  -0.11030
C          C       0.60553   0.20417   0.28251  -0.04237
C          C       0.28881   0.27669   0.85231   0.08935
C          C       0.44069   0.25204   0.83826  -0.04604
C          C       0.45992   0.25862   0.91380  -0.12896
C          C       0.09448   0.39450   0.34885   0.10847
C          C       0.12583   0.29856   0.26854  -0.05036
C          C       0.20083   0.28439   0.33587  -0.10639
C          C       0.23844   0.58001   0.63017  -0.11596
C          C       0.19383   0.61635   0.68005  -0.04092
C          C       0.17750   0.46195   0.68750   0.09387
C          C       0.24765   0.40859   0.58910   0.20214
C          C       0.21937   0.42078   0.51206  -0.26312
C          C       0.22322   0.34300   0.46631   0.20439
C          C       0.25831   0.25662   0.49666  -0.24445
C          C       0.29240   0.24855   0.57393   0.20376
C          C       0.28700   0.32393   0.62136  -0.26011
C          C       0.37059   0.09458   0.56817   0.10493
C          C       0.31880   0.11925   0.66779  -0.09495
C          C       0.35582   0.03044   0.66928  -0.04013
C          C       0.46410   0.69488   0.53926   0.56505
C          C       0.48311   0.59431   0.51887  -0.09763
C          C       0.52032   0.52807   0.57427   0.02659
C          C       0.53680   0.43462   0.55600   0.02900
C          C       0.70090   0.42432   0.08962   0.56716
C          C       0.59710   0.46333   0.04276  -0.10267
C          C       0.52497   0.49382   0.07700   0.02668
C          C       0.42913   0.52922   0.03468   0.03009
C          C       0.01734   0.66762   0.23048   0.56490
C          C       0.09286   0.75300   0.26892  -0.08874
C          C       0.18250   0.77766   0.24716   0.03048
C          C       0.25997   0.84863   0.28648   0.02913
C          C       0.24963   0.89683   0.34887  -0.09760
C          C       0.15691   0.87687   0.36788   0.03991
C          C       0.07935   0.80583   0.32823   0.03569
C          C       0.34124   0.96379   0.39673   0.59196
C          C       0.88318   0.58385   0.87868   0.07503
C          C       0.03830   0.60368   0.96515  -0.03080
C          C       0.96711   0.64071   0.99483  -0.09144
C          C       0.77291   0.66730   0.94052   0.19947
C          C       0.75118   0.67363   0.00772  -0.24815
C          C       0.65844   0.71455   0.00866   0.21882
C          C       0.58701   0.74600   0.94300  -0.26045
C          C       0.61016   0.73701   0.87640   0.19584
C          C       0.70301   0.69827   0.87413  -0.29374
C          C       0.56756   0.81500   0.75384   0.08389
C          C       0.42822   0.75798   0.78686  -0.11005
C          C       0.39447   0.79583   0.71749  -0.04244
C          C       0.71119   0.72331   0.14769   0.08925
C          C       0.55931   0.74795   0.16174  -0.04594
C          C       0.54008   0.74137   0.08620  -0.12923
C          C       0.90552   0.60549   0.65115   0.10845
C          C       0.87417   0.70144   0.73146  -0.05027
C          C       0.79917   0.71560   0.66413  -0.10646
C          C       0.76156   0.41999   0.36983  -0.11595
C          C       0.80617   0.38364   0.31995  -0.04080
C          C       0.82250   0.53804   0.31250   0.09373
C          C       0.75235   0.59140   0.41090   0.20235
C          C       0.78063   0.57921   0.48794  -0.26307
C          C       0.77678   0.65699   0.53369   0.20435
C          C       0.74169   0.74338   0.50334  -0.24469
C          C       0.70760   0.75144   0.42607   0.20411
C          C       0.71300   0.67607   0.37864  -0.26032
C          C       0.62941   0.90542   0.43184   0.10527
C          C       0.68120   0.88075   0.33221  -0.09496
C          C       0.64418   0.96956   0.33072  -0.04004
C          C       0.53590   0.30512   0.46074   0.56500
C          C       0.51689   0.40569   0.48113  -0.09769
C          C       0.47968   0.47193   0.42574   0.02660
C          C       0.46320   0.56537   0.44400   0.02889
C          C       0.29910   0.57567   0.91038   0.56720
C          C       0.40290   0.53667   0.95724  -0.10260
C          C       0.47503   0.50617   0.92300   0.02652
C          C       0.57087   0.47077   0.96533   0.03013
C          C       0.98266   0.33238   0.76952   0.56485
C          C       0.90714   0.24700   0.73108  -0.08865
C          C       0.81750   0.22234   0.75284   0.03046
C          C       0.74003   0.15137   0.71353   0.02911
C          C       0.75037   0.10316   0.65113  -0.09759
C          C       0.84309   0.12313   0.63212   0.03985
C          C       0.92065   0.19417   0.67177   0.03576
C          C       0.65876   0.03620   0.60327   0.59180
Br         Br      0.54757   0.56796   0.67676  -0.03369
Br         Br      0.58547   0.34344   0.63150  -0.02605
Br         Br      0.56107   0.48765   0.18329  -0.00570
Br         Br      0.33184   0.56961   0.08350  -0.03400
Br         Br      0.95256   0.77914   0.35516  -0.03239
Br         Br      0.14044   0.94845   0.45033  -0.03395
Br         Br      0.19871   0.71021   0.16310  -0.02727
Br         Br      0.38546   0.87868   0.25880  -0.01395
Br         Br      0.45243   0.43204   0.32324  -0.03375
Br         Br      0.41453   0.65655   0.36850  -0.02616
Br         Br      0.43893   0.51235   0.81671  -0.00576
Br         Br      0.66816   0.43039   0.91650  -0.03400
Br         Br      0.04744   0.22085   0.64485  -0.03248
Br         Br      0.85956   0.05154   0.54967  -0.03392
Br         Br      0.80129   0.28979   0.83690  -0.02726
Br         Br      0.61454   0.12132   0.74120  -0.01385
N          N       0.01476   0.43145   0.10697  -0.28866
N          N       0.13155   0.37126   0.06101   0.01914
N          N       0.36249   0.27519   0.92302   0.01482
N          N       0.33398   0.26268   0.80041  -0.32361
N          N       0.46100   0.23017   0.19062   0.01906
N          N       0.51870   0.16852   0.30213  -0.30497
N          N       0.06006   0.36734   0.27723  -0.29534
N          N       0.18034   0.34605   0.38718   0.02320
N          N       0.22791   0.48100   0.63559   0.01226
N          N       0.15585   0.54247   0.71489  -0.29589
N          N       0.32822   0.15964   0.60300   0.02135
N          N       0.38729   0.01578   0.60688  -0.31591
N          N       0.98524   0.56855   0.89303  -0.28868
N          N       0.86845   0.62874   0.93899   0.01910
N          N       0.63751   0.72480   0.07698   0.01494
N          N       0.66602   0.73732   0.19959  -0.32345
N          N       0.53900   0.76983   0.80938   0.01910
N          N       0.48130   0.83147   0.69787  -0.30517
N          N       0.93994   0.63266   0.72277  -0.29528
N          N       0.81966   0.65395   0.61282   0.02330
N          N       0.77209   0.51900   0.36441   0.01230
N          N       0.84415   0.45752   0.28512  -0.29599
N          N       0.67178   0.84035   0.39700   0.02111
N          N       0.61271   0.98422   0.39312  -0.31621
O          O       0.78111   0.48633   0.10376  -0.55709
O          O       0.69853   0.34004   0.10961  -0.54796
O          O       0.03503   0.59100   0.26697  -0.56493
O          O       0.94901   0.67684   0.16821  -0.55042
O          O       0.54300   0.75737   0.54955  -0.55930
O          O       0.37502   0.70994   0.54510  -0.54167
O          O       0.34901   0.04836   0.37474  -0.56591
O          O       0.40480   0.92820   0.45284  -0.58382
O          O       0.21889   0.51367   0.89625  -0.55698
O          O       0.30147   0.65996   0.89039  -0.54819
O          O       0.96497   0.40899   0.73303  -0.56512
O          O       0.05099   0.32316   0.83180  -0.55033
O          O       0.45700   0.24263   0.45045  -0.55918
O          O       0.62498   0.29005   0.45490  -0.54168
O          O       0.65099   0.95164   0.62526  -0.56554
O          O       0.59520   0.07179   0.54716  -0.58395

