data_crystal

_audit_creation_method 'AiiDA-DDEC plugin'

_cell_length_a         7.07736
_cell_length_b        16.84231
_cell_length_c        23.31412

_cell_angle_alpha     90.00000
_cell_angle_beta     89.99590
_cell_angle_gamma     90.00000

_symmetry_space_group_name_Hall 'P 1'
_symmetry_space_group_name_H-M  'P 1'

loop_
_symmetry_equiv_pos_as_xyz
 'x,y,z'

loop_
_atom_site_label
_atom_site_type_symbol
_atom_site_fract_x
_atom_site_fract_y
_atom_site_fract_z
_atom_site_charge
Ag         Ag      0.11049   0.55962   0.16220   0.22366
Ag         Ag      0.88952   0.55962   0.83779   0.22358
Ag         Ag      0.39059   0.05972   0.66218   0.22390
Ag         Ag      0.60941   0.05972   0.33782   0.22391
Ag         Ag      0.00000   0.91264   0.50000   0.26852
Ag         Ag      0.50000   0.41278   0.00000   0.26791
H          H       0.82156   0.23313   0.34987   0.07142
H          H       0.90966   0.33709   0.28050   0.12272
H          H       0.81468   0.23803   0.09070   0.10432
H          H       0.85336   0.34447   0.01581   0.09498
H          H       0.96684   0.47932   0.04537   0.06769
H          H       0.00598   0.40970   0.21533   0.07715
H          H       0.57835   0.08310   0.12037   0.10960
H          H       0.82517   0.06258   0.12061   0.11828
H          H       0.90322   0.90912   0.14758   0.11463
H          H       0.53695   0.74077   0.06518   0.10059
H          H       0.30943   0.84922   0.04322   0.10209
H          H       0.37665   0.98735   0.07459   0.10898
H          H       0.98642   0.77538   0.15035   0.11596
H          H       0.95963   0.73870   0.07926   0.11575
H          H       0.67975   0.56339   0.32945   0.07807
H          H       0.76880   0.68722   0.38108   0.11521
H          H       0.96065   0.88083   0.24548   0.09821
H          H       0.07945   0.00778   0.29082   0.10513
H          H       0.06942   0.02001   0.39751   0.06339
H          H       0.83267   0.79630   0.41571   0.07781
H          H       0.17845   0.23313   0.65013   0.07145
H          H       0.09035   0.33709   0.71950   0.12274
H          H       0.18532   0.23803   0.90930   0.10429
H          H       0.14665   0.34447   0.98419   0.09500
H          H       0.03317   0.47932   0.95463   0.06762
H          H       0.99403   0.40970   0.78466   0.07717
H          H       0.42166   0.08310   0.87963   0.10964
H          H       0.17484   0.06258   0.87939   0.11804
H          H       0.09679   0.90912   0.85242   0.11455
H          H       0.46306   0.74077   0.93481   0.10063
H          H       0.69057   0.84922   0.95678   0.10211
H          H       0.62336   0.98735   0.92541   0.10905
H          H       0.01359   0.77538   0.84964   0.11599
H          H       0.04038   0.73870   0.92074   0.11565
H          H       0.32026   0.56339   0.67055   0.07809
H          H       0.23121   0.68722   0.61892   0.11528
H          H       0.03936   0.88083   0.75452   0.09816
H          H       0.92056   0.00778   0.70917   0.10504
H          H       0.93059   0.02001   0.60249   0.06333
H          H       0.16734   0.79630   0.58429   0.07788
H          H       0.67752   0.73308   0.84984   0.07170
H          H       0.59013   0.83712   0.78045   0.12254
H          H       0.68538   0.73791   0.59067   0.10411
H          H       0.64696   0.84434   0.51573   0.09545
H          H       0.53428   0.97930   0.54525   0.06831
H          H       0.49497   0.90979   0.71526   0.07673
H          H       0.92130   0.58310   0.62060   0.11106
H          H       0.67450   0.56251   0.62048   0.11813
H          H       0.59673   0.40901   0.64760   0.11393
H          H       0.96338   0.24082   0.56521   0.10065
H          H       0.19075   0.34935   0.54326   0.10070
H          H       0.12321   0.48746   0.57464   0.10886
H          H       0.51386   0.27525   0.65033   0.11678
H          H       0.54086   0.23854   0.57925   0.11582
H          H       0.82125   0.06365   0.82957   0.07788
H          H       0.73114   0.18738   0.88112   0.11473
H          H       0.53830   0.38072   0.74550   0.09840
H          H       0.42004   0.50779   0.79083   0.10448
H          H       0.43074   0.52016   0.89749   0.06371
H          H       0.66653   0.29632   0.91576   0.07832
H          H       0.32249   0.73308   0.15015   0.07177
H          H       0.40987   0.83712   0.21954   0.12255
H          H       0.31463   0.73791   0.40933   0.10407
H          H       0.35305   0.84434   0.48427   0.09535
H          H       0.46573   0.97930   0.45475   0.06831
H          H       0.50504   0.90979   0.28474   0.07682
H          H       0.07870   0.58310   0.37940   0.11096
H          H       0.32551   0.56251   0.37952   0.11818
H          H       0.40328   0.40901   0.35240   0.11406
H          H       0.03662   0.24082   0.43479   0.10061
H          H       0.80926   0.34935   0.45674   0.10050
H          H       0.87679   0.48746   0.42536   0.10881
H          H       0.48614   0.27525   0.34966   0.11694
H          H       0.45915   0.23854   0.42075   0.11584
H          H       0.17876   0.06365   0.17043   0.07790
H          H       0.26887   0.18738   0.11888   0.11480
H          H       0.46171   0.38072   0.25449   0.09834
H          H       0.57997   0.50779   0.20917   0.10447
H          H       0.56927   0.52016   0.10250   0.06377
H          H       0.33348   0.29632   0.08424   0.07834
C          C       0.75938   0.13423   0.22983   0.30981
C          C       0.81687   0.22148   0.30410   0.07801
C          C       0.86574   0.27911   0.26500  -0.23178
C          C       0.85615   0.26065   0.20561   0.19539
C          C       0.89529   0.31608   0.16054  -0.02434
C          C       0.86153   0.29746   0.10175  -0.11851
C          C       0.88390   0.35643   0.06075  -0.14403
C          C       0.94543   0.43212   0.07638  -0.03065
C          C       0.96560   0.39297   0.17197   0.04855
C          C       0.68621   0.04041   0.13401  -0.22506
C          C       0.64565   0.95782   0.11276   0.12147
C          C       0.77389   0.89618   0.12405  -0.20502
C          C       0.73719   0.81810   0.10687   0.12683
C          C       0.56746   0.80156   0.07816  -0.16237
C          C       0.43876   0.86228   0.06660  -0.07478
C          C       0.47726   0.94020   0.08386  -0.16020
C          C       0.88292   0.75473   0.11862  -0.23056
C          C       0.78121   0.67642   0.22086   0.32104
C          C       0.72395   0.61635   0.30605   0.11414
C          C       0.77491   0.68503   0.33454  -0.24982
C          C       0.82834   0.75183   0.30142   0.21398
C          C       0.89215   0.82628   0.32623  -0.01172
C          C       0.95920   0.88904   0.29171  -0.06817
C          C       0.02366   0.95883   0.31648  -0.13525
C          C       0.01920   0.96660   0.37635   0.03483
C          C       0.88922   0.84011   0.38613   0.01529
C          C       0.24063   0.13423   0.77017   0.30988
C          C       0.18314   0.22148   0.69590   0.07824
C          C       0.13427   0.27911   0.73500  -0.23195
C          C       0.14385   0.26065   0.79439   0.19555
C          C       0.10472   0.31608   0.83946  -0.02434
C          C       0.13847   0.29746   0.89825  -0.11830
C          C       0.11611   0.35643   0.93925  -0.14439
C          C       0.05457   0.43212   0.92362  -0.03051
C          C       0.03441   0.39297   0.82803   0.04858
C          C       0.31379   0.04041   0.86598  -0.22495
C          C       0.35435   0.95782   0.88724   0.12147
C          C       0.22612   0.89618   0.87594  -0.20505
C          C       0.26282   0.81810   0.89312   0.12692
C          C       0.43255   0.80156   0.92184  -0.16256
C          C       0.56124   0.86228   0.93340  -0.07458
C          C       0.52275   0.94020   0.91614  -0.16021
C          C       0.11709   0.75473   0.88137  -0.23071
C          C       0.21880   0.67642   0.77914   0.32108
C          C       0.27605   0.61635   0.69395   0.11422
C          C       0.22510   0.68503   0.66546  -0.24966
C          C       0.17167   0.75183   0.69858   0.21396
C          C       0.10786   0.82628   0.67377  -0.01164
C          C       0.04081   0.88904   0.70828  -0.06824
C          C       0.97635   0.95883   0.68352  -0.13534
C          C       0.98081   0.96660   0.62365   0.03486
C          C       0.11079   0.84011   0.61387   0.01526
C          C       0.73983   0.63416   0.72983   0.31097
C          C       0.68274   0.72150   0.80407   0.07809
C          C       0.63423   0.77915   0.76496  -0.23074
C          C       0.64380   0.76065   0.70557   0.19486
C          C       0.60504   0.81607   0.66047  -0.02434
C          C       0.63869   0.79738   0.60169  -0.11746
C          C       0.61654   0.85634   0.56067  -0.14380
C          C       0.55531   0.93208   0.57628  -0.03260
C          C       0.53508   0.89301   0.67188   0.04758
C          C       0.81329   0.54037   0.63405  -0.22645
C          C       0.85419   0.45782   0.61278   0.12205
C          C       0.72607   0.39613   0.62406  -0.20501
C          C       0.76298   0.31807   0.60687   0.12706
C          C       0.93278   0.30161   0.57817  -0.16344
C          C       0.06136   0.36238   0.56663  -0.07153
C          C       0.02266   0.44028   0.58389  -0.16075
C          C       0.61745   0.25463   0.61862  -0.23144
C          C       0.71927   0.17649   0.72092   0.31947
C          C       0.77672   0.11653   0.80613   0.11467
C          C       0.72542   0.18519   0.83458  -0.25023
C          C       0.67169   0.25192   0.80143   0.21537
C          C       0.60749   0.32632   0.82623  -0.01128
C          C       0.54014   0.38902   0.79173  -0.06796
C          C       0.47585   0.45885   0.81648  -0.13418
C          C       0.48062   0.46669   0.87634   0.03420
C          C       0.61027   0.34013   0.88614   0.01453
C          C       0.26018   0.63416   0.27017   0.31101
C          C       0.31727   0.72150   0.19593   0.07812
C          C       0.36578   0.77915   0.23503  -0.23067
C          C       0.35621   0.76065   0.29443   0.19486
C          C       0.39496   0.81607   0.33953  -0.02439
C          C       0.36132   0.79738   0.39831  -0.11752
C          C       0.38346   0.85634   0.43932  -0.14378
C          C       0.44470   0.93208   0.42372  -0.03269
C          C       0.46493   0.89301   0.32812   0.04759
C          C       0.18672   0.54037   0.36594  -0.22637
C          C       0.14582   0.45782   0.38721   0.12217
C          C       0.27393   0.39613   0.37594  -0.20506
C          C       0.23703   0.31807   0.39313   0.12706
C          C       0.06723   0.30161   0.42183  -0.16336
C          C       0.93865   0.36238   0.43337  -0.07154
C          C       0.97735   0.44028   0.41611  -0.16091
C          C       0.38256   0.25463   0.38138  -0.23154
C          C       0.28074   0.17649   0.27908   0.31938
C          C       0.22329   0.11653   0.19387   0.11463
C          C       0.27459   0.18519   0.16542  -0.25022
C          C       0.32831   0.25192   0.19856   0.21548
C          C       0.39252   0.32632   0.17376  -0.01126
C          C       0.45987   0.38902   0.20827  -0.06806
C          C       0.52415   0.45885   0.18352  -0.13414
C          C       0.51939   0.46669   0.12366   0.03424
C          C       0.38974   0.34013   0.11385   0.01445
S          S       0.68703   0.03668   0.21257  -0.01346
S          S       0.78953   0.66078   0.14501   0.00739
S          S       0.31298   0.03668   0.78743  -0.01334
S          S       0.21047   0.66078   0.85499   0.00749
S          S       0.81152   0.53652   0.71260  -0.01384
S          S       0.71114   0.16077   0.64506   0.00899
S          S       0.18848   0.53652   0.28740  -0.01392
S          S       0.28886   0.16077   0.35494   0.00891
N          N       0.76305   0.14677   0.28778  -0.31269
N          N       0.80309   0.18498   0.18921  -0.39049
N          N      -0.00457   0.44821   0.13186  -0.17867
N          N       0.72674   0.60980   0.24806  -0.37411
N          N       0.83096   0.74575   0.24260  -0.38079
N          N       0.95163   0.90804   0.41025  -0.18481
N          N       0.23696   0.14677   0.71222  -0.31265
N          N       0.19692   0.18498   0.81079  -0.39082
N          N       0.00458   0.44821   0.86814  -0.17868
N          N       0.27326   0.60980   0.75194  -0.37419
N          N       0.16905   0.74575   0.75740  -0.38103
N          N       0.04838   0.90804   0.58974  -0.18457
N          N       0.73638   0.64676   0.78777  -0.31350
N          N       0.69615   0.68488   0.68920  -0.39146
N          N       0.50540   0.94825   0.63175  -0.17733
N          N       0.77386   0.10992   0.74814  -0.37421
N          N       0.66915   0.24581   0.74261  -0.38147
N          N       0.54802   0.40811   0.91025  -0.18426
N          N       0.26363   0.64676   0.21223  -0.31343
N          N       0.30386   0.68488   0.31080  -0.39161
N          N       0.49461   0.94825   0.36824  -0.17723
N          N       0.22615   0.10992   0.25186  -0.37423
N          N       0.33086   0.24581   0.25738  -0.38147
N          N       0.45199   0.40811   0.08975  -0.18411

