data_crystal

_audit_creation_method 'AiiDA-DDEC plugin'

_cell_length_a        11.83292
_cell_length_b        11.91047
_cell_length_c        11.91057

_cell_angle_alpha     90.02893
_cell_angle_beta     89.84586
_cell_angle_gamma     90.15369

_symmetry_space_group_name_Hall 'P 1'
_symmetry_space_group_name_H-M  'P 1'

loop_
_symmetry_equiv_pos_as_xyz
 'x,y,z'

loop_
_atom_site_label
_atom_site_type_symbol
_atom_site_fract_x
_atom_site_fract_y
_atom_site_fract_z
_atom_site_charge
Ca         Ca     -0.00001   0.78112   0.78112   1.31498
Ca         Ca      0.50000   0.21828   0.21828   1.31465
Ca         Ca      0.74996   0.71876   0.28162   1.31512
Ca         Ca      0.25003   0.28162   0.71876   1.31509
H          H       0.79849   0.96604   0.90922   0.04745
H          H       0.80978   0.85537   0.08111   0.06432
H          H       0.77433   0.64895   0.93209   0.04992
H          H       0.59591   0.62669   0.01973   0.03587
H          H       0.58765   0.74283   0.86048   0.06963
H          H       0.50000   0.80951   0.96233   0.09917
H          H       0.79146   0.75125   0.79460   0.32906
H          H       0.97551   0.83492   0.04769   0.37942
H          H       0.89354   0.63303   0.09085   0.36724
H          H       0.29735   0.03452   0.09134   0.04571
H          H       0.30951   0.14454   0.91894   0.06471
H          H       0.27432   0.35135   0.06734   0.04916
H          H       0.09669   0.37367   0.98050   0.03487
H          H       0.08773   0.25716   0.13997   0.06994
H          H      -0.00024   0.19067   0.03842   0.10031
H          H       0.29156   0.24959   0.20502   0.32843
H          H       0.47532   0.16475   0.95240   0.37999
H          H       0.39542   0.36516   0.90891   0.36878
H          H       0.54778   0.59088   0.46580   0.04704
H          H       0.56064   0.41945   0.35483   0.06590
H          H       0.52350   0.56892   0.14921   0.05001
H          H       0.34646   0.47868   0.12719   0.03624
H          H       0.33881   0.63888   0.24400   0.06932
H          H       0.24986   0.53697   0.30927   0.09990
H          H       0.54107   0.70549   0.25177   0.32846
H          H       0.72601   0.45489   0.33392   0.37901
H          H       0.64542   0.41009   0.13446   0.36742
H          H       0.04916   0.40792   0.53424   0.04632
H          H       0.05893   0.57950   0.64455   0.06538
H          H       0.01892   0.43068   0.85052   0.05106
H          H       0.84199   0.52031   0.87060   0.03525
H          H       0.83724   0.35979   0.75667   0.06966
H          H       0.74877   0.45915   0.68770   0.10023
H          H       0.04222   0.29381   0.74880   0.32954
H          H       0.22393   0.54832   0.66972   0.37696
H          H       0.14112   0.58940   0.86685   0.36615
H          H       0.95084   0.53424   0.40792   0.04629
H          H       0.94107   0.64455   0.57950   0.06536
H          H       0.98107   0.85052   0.43068   0.05113
H          H       0.15800   0.87060   0.52031   0.03528
H          H       0.16276   0.75667   0.35979   0.06972
H          H       0.25123   0.68770   0.45915   0.10014
H          H       0.95778   0.74880   0.29381   0.32958
H          H       0.77606   0.66972   0.54831   0.37706
H          H       0.85887   0.86685   0.58940   0.36630
H          H       0.45222   0.46580   0.59087   0.04716
H          H       0.43936   0.35483   0.41945   0.06594
H          H       0.47650   0.14921   0.56892   0.04999
H          H       0.65354   0.12719   0.47868   0.03621
H          H       0.66119   0.24400   0.63888   0.06926
H          H       0.75014   0.30927   0.53697   0.09985
H          H       0.45893   0.25177   0.70549   0.32811
H          H       0.27399   0.33392   0.45489   0.37905
H          H       0.35457   0.13446   0.41009   0.36742
H          H       0.20150   0.90922   0.96603   0.04752
H          H       0.19022   0.08110   0.85537   0.06429
H          H       0.22566   0.93209   0.64895   0.04992
H          H       0.40409   0.01973   0.62669   0.03583
H          H       0.41235   0.86048   0.74283   0.06960
H          H       0.49999   0.96233   0.80951   0.09892
H          H       0.20853   0.79460   0.75125   0.32899
H          H       0.02449   0.04769   0.83492   0.37947
H          H       0.10645   0.09085   0.63303   0.36729
H          H       0.70265   0.09134   0.03452   0.04572
H          H       0.69049   0.91894   0.14454   0.06472
H          H       0.72568   0.06734   0.35135   0.04919
H          H       0.90330   0.98050   0.37367   0.03479
H          H       0.91227   0.13997   0.25716   0.06991
H          H       0.00024   0.03843   0.19067   0.10032
H          H       0.70844   0.20503   0.24959   0.32844
H          H       0.52468   0.95240   0.16475   0.37997
H          H       0.60458   0.90891   0.36516   0.36919
C          C       0.76463   0.88010   0.90789   0.30554
C          C       0.81869   0.81090   0.00133   0.02180
C          C       0.76285   0.69630   0.01046   0.08830
C          C       0.63538   0.71019   0.03432   0.15543
C          C       0.58733   0.78633   0.94214  -0.05140
C          C       0.26365   0.12031   0.09232   0.30745
C          C       0.31840   0.18921  -0.00135   0.02046
C          C       0.26311   0.30374   0.98908   0.08796
C          C       0.13537   0.29004   0.96567   0.15779
C          C       0.08715   0.21384   0.05821  -0.05544
C          C       0.51403   0.59215   0.38010   0.30253
C          C       0.56884   0.49930   0.31018   0.01927
C          C       0.51307   0.48990   0.19587   0.08790
C          C       0.38580   0.46481   0.21063   0.15243
C          C       0.33753   0.55693   0.28688  -0.05345
C          C       0.01458   0.40602   0.61985   0.30663
C          C       0.06719   0.50009   0.68972   0.01955
C          C       0.00962   0.50959   0.80356   0.08671
C          C       0.88270   0.53433   0.78759   0.15496
C          C       0.83613   0.44066   0.71170  -0.05476
C          C       0.98541   0.61985   0.40602   0.30690
C          C       0.93280   0.68973   0.50009   0.01938
C          C       0.99037   0.80356   0.50959   0.08675
C          C       0.11729   0.78760   0.53433   0.15492
C          C       0.16386   0.71170   0.44066  -0.05489
C          C       0.48597   0.38010   0.59214   0.30266
C          C       0.43116   0.31018   0.49930   0.01917
C          C       0.48693   0.19587   0.48990   0.08794
C          C       0.61420   0.21063   0.46481   0.15232
C          C       0.66246   0.28688   0.55693  -0.05350
C          C       0.23537   0.90789   0.88010   0.30566
C          C       0.18131   0.00133   0.81090   0.02173
C          C       0.23715   0.01046   0.69630   0.08833
C          C       0.36461   0.03431   0.71019   0.15561
C          C       0.41266   0.94214   0.78633  -0.05130
C          C       0.73635   0.09232   0.12031   0.30747
C          C       0.68161  -0.00135   0.18921   0.02051
C          C       0.73688   0.98909   0.30374   0.08804
C          C       0.86463   0.96567   0.29004   0.15773
C          C       0.91285   0.05821   0.21384  -0.05539
O          O       0.78851   0.83688   0.79912  -0.56863
O          O       0.93990   0.79987   0.98262  -0.53139
O          O       0.81181   0.63359   0.10220  -0.51970
O          O       0.61624   0.74931   0.14343  -0.72108
O          O       0.64708   0.89218   0.93123  -0.27929
O          O       0.28626   0.16405   0.20097  -0.56834
O          O       0.43975   0.20025   0.01722  -0.53152
O          O       0.31370   0.36629   0.89759  -0.52201
O          O       0.11467   0.25082   0.85686  -0.72088
O          O       0.14642   0.10794   0.06847  -0.27750
O          O       0.53679   0.70156   0.33731  -0.56381
O          O       0.69006   0.51887   0.29762  -0.52893
O          O       0.56364   0.39955   0.13176  -0.52001
O          O       0.36611   0.35591   0.25077  -0.71719
O          O       0.39677   0.56653   0.39306  -0.27597
O          O       0.03920   0.29746   0.66307  -0.56723
O          O       0.18825   0.48213   0.70287  -0.52818
O          O       0.05930   0.60020   0.86804  -0.51941
O          O       0.86371   0.64349   0.74829  -0.71877
O          O       0.89710   0.42854   0.60634  -0.27755
O          O       0.96079   0.66307   0.29746  -0.56730
O          O       0.81174   0.70288   0.48213  -0.52810
O          O       0.94069   0.86804   0.60020  -0.51942
O          O       0.13628   0.74829   0.64349  -0.71886
O          O       0.10290   0.60634   0.42854  -0.27770
O          O       0.46321   0.33731   0.70156  -0.56357
O          O       0.30994   0.29762   0.51887  -0.52888
O          O       0.43636   0.13176   0.39955  -0.51998
O          O       0.63389   0.25077   0.35591  -0.71713
O          O       0.60323   0.39306   0.56653  -0.27605
O          O       0.21148   0.79912   0.83687  -0.56860
O          O       0.06009   0.98262   0.79987  -0.53114
O          O       0.18819   0.10220   0.63359  -0.51970
O          O       0.38376   0.14343   0.74930  -0.72111
O          O       0.35292   0.93123   0.89218  -0.27966
O          O       0.71374   0.20097   0.16405  -0.56839
O          O       0.56025   0.01722   0.20025  -0.53153
O          O       0.68629   0.89760   0.36629  -0.52234
O          O       0.88533   0.85687   0.25082  -0.72096
O          O       0.85358   0.06847   0.10794  -0.27751

