data_crystal

_audit_creation_method 'AiiDA-DDEC plugin'

_cell_length_a         8.29980
_cell_length_b        12.04215
_cell_length_c        26.54360

_cell_angle_alpha     90.00000
_cell_angle_beta     90.00000
_cell_angle_gamma     104.87945

_symmetry_space_group_name_Hall 'P 1'
_symmetry_space_group_name_H-M  'P 1'

loop_
_symmetry_equiv_pos_as_xyz
 'x,y,z'

loop_
_atom_site_label
_atom_site_type_symbol
_atom_site_fract_x
_atom_site_fract_y
_atom_site_fract_z
_atom_site_charge
Gd         Gd      0.78151   0.51890   0.51300   2.07539
Gd         Gd      0.21849   0.48110   0.01300   2.07540
Gd         Gd      0.21849   0.48110   0.48700   2.07543
Gd         Gd      0.78151   0.51890   0.98700   2.07540
Cu         Cu      0.08662   0.01039   0.70058   0.18778
Cu         Cu      0.91338   0.98960   0.20058   0.18778
Cu         Cu      0.91338   0.98960   0.29942   0.18774
Cu         Cu      0.08662   0.01039   0.79942   0.18775
H          H      -0.00102   0.81782   0.62775   0.09992
H          H       0.43780   0.69437   0.60586   0.13296
H          H       0.58966   0.84880   0.66639   0.11495
H          H       0.43174   0.98240   0.70265   0.07569
H          H       0.15371   0.18551   0.61759   0.10172
H          H       0.71036   0.30719   0.60240   0.12461
H          H       0.58046   0.16906   0.67146   0.11115
H          H       0.74606   0.04020   0.70727   0.07437
H          H       0.22483   0.19971   0.43598   0.08846
H          H       0.50697   0.14753   0.56594   0.11359
H          H       0.35749   0.93814   0.56183   0.10270
H          H       0.14388   0.87152   0.49456   0.08046
H          H       0.00102   0.18218   0.12775   0.09995
H          H       0.56220   0.30562   0.10586   0.13292
H          H       0.41034   0.15120   0.16639   0.11495
H          H       0.56825   0.01759   0.20265   0.07574
H          H       0.84629   0.81449   0.11759   0.10168
H          H       0.28964   0.69281   0.10240   0.12468
H          H       0.41954   0.83094   0.17146   0.11122
H          H       0.25394   0.95980   0.20727   0.07437
H          H       0.77517   0.80029   0.93598   0.08847
H          H       0.49303   0.85246   0.06594   0.11358
H          H       0.64251   0.06186   0.06184   0.10269
H          H       0.85612   0.12847   0.99456   0.08040
H          H       0.00102   0.18218   0.37225   0.09995
H          H       0.56220   0.30562   0.39414   0.13293
H          H       0.41034   0.15120   0.33361   0.11497
H          H       0.56826   0.01759   0.29735   0.07571
H          H       0.84629   0.81449   0.38241   0.10169
H          H       0.28964   0.69281   0.39760   0.12463
H          H       0.41954   0.83094   0.32854   0.11119
H          H       0.25394   0.95980   0.29273   0.07438
H          H       0.77517   0.80029   0.56402   0.08845
H          H       0.49303   0.85246   0.43406   0.11363
H          H       0.64251   0.06186   0.43816   0.10269
H          H       0.85612   0.12847   0.50544   0.08037
H          H      -0.00102   0.81782   0.87225   0.09995
H          H       0.43780   0.69437   0.89414   0.13290
H          H       0.58966   0.84880   0.83361   0.11494
H          H       0.43175   0.98240   0.79735   0.07568
H          H       0.15371   0.18551   0.88241   0.10171
H          H       0.71036   0.30718   0.89760   0.12462
H          H       0.58045   0.16905   0.82854   0.11120
H          H       0.74606   0.04019   0.79273   0.07443
H          H       0.22483   0.19971   0.06402   0.08843
H          H       0.50697   0.14753   0.93406   0.11358
H          H       0.35749   0.93814   0.93816   0.10276
H          H       0.14388   0.87152   0.00544   0.08041
C          C       0.12933   0.82206   0.63519   0.07397
C          C       0.20760   0.74521   0.61245  -0.09269
C          C       0.37594   0.75385   0.62345  -0.04525
C          C       0.45936   0.83928   0.65639  -0.12705
C          C       0.37260   0.91324   0.67705   0.08719
C          C       0.11969   0.65695   0.57540   0.65808
C          C       0.02645   0.18313   0.62842   0.08745
C          C       0.94252   0.25705   0.60562  -0.08770
C          C       0.77895   0.25245   0.62049  -0.04886
C          C       0.70618   0.17451   0.65781  -0.12658
C          C       0.79764   0.10356   0.67839   0.09261
C          C       0.02602   0.33763   0.56574   0.63675
C          C       0.25638   0.14339   0.46437   0.07669
C          C       0.37627   0.18963   0.50125  -0.09957
C          C       0.41367   0.11482   0.53719  -0.03623
C          C       0.33010  -0.00104   0.53501  -0.13852
C          C       0.21165   0.96184   0.49715   0.10251
C          C       0.45871   0.31453   0.50231   0.63795
C          C       0.87067   0.17794   0.13519   0.07391
C          C       0.79240   0.25479   0.11245  -0.09263
C          C       0.62406   0.24615   0.12345  -0.04528
C          C       0.54064   0.16072   0.15639  -0.12711
C          C       0.62740   0.08676   0.17705   0.08720
C          C       0.88031   0.34305   0.07540   0.65791
C          C       0.97355   0.81686   0.12842   0.08752
C          C       0.05748   0.74295   0.10562  -0.08773
C          C       0.22105   0.74755   0.12049  -0.04883
C          C       0.29382   0.82548   0.15781  -0.12663
C          C       0.20236   0.89644   0.17839   0.09258
C          C       0.97398   0.66237   0.06574   0.63683
C          C       0.74362   0.85661   0.96437   0.07685
C          C       0.62373   0.81036   0.00125  -0.09961
C          C       0.58633   0.88518   0.03719  -0.03618
C          C       0.66990   0.00103   0.03501  -0.13856
C          C       0.78835   0.03816   0.99715   0.10241
C          C       0.54129   0.68546   0.00231   0.63797
C          C       0.87067   0.17794   0.36481   0.07385
C          C       0.79240   0.25479   0.38755  -0.09260
C          C       0.62406   0.24615   0.37655  -0.04535
C          C       0.54064   0.16072   0.34361  -0.12707
C          C       0.62740   0.08676   0.32295   0.08722
C          C       0.88031   0.34305   0.42460   0.65811
C          C       0.97355   0.81686   0.37158   0.08752
C          C       0.05748   0.74295   0.39438  -0.08771
C          C       0.22105   0.74755   0.37951  -0.04882
C          C       0.29382   0.82548   0.34219  -0.12662
C          C       0.20236   0.89644   0.32161   0.09261
C          C       0.97398   0.66237   0.43426   0.63677
C          C       0.74362   0.85661   0.53563   0.07684
C          C       0.62373   0.81036   0.49875  -0.09962
C          C       0.58633   0.88518   0.46281  -0.03621
C          C       0.66990   0.00103   0.46499  -0.13853
C          C       0.78835   0.03816   0.50285   0.10255
C          C       0.54129   0.68547   0.49769   0.63800
C          C       0.12933   0.82206   0.86481   0.07391
C          C       0.20760   0.74521   0.88755  -0.09263
C          C       0.37594   0.75385   0.87655  -0.04530
C          C       0.45936   0.83928   0.84361  -0.12700
C          C       0.37260   0.91324   0.82295   0.08718
C          C       0.11969   0.65695   0.92460   0.65792
C          C       0.02645   0.18313   0.87158   0.08740
C          C       0.94252   0.25705   0.89438  -0.08768
C          C       0.77895   0.25245   0.87951  -0.04887
C          C       0.70617   0.17451   0.84219  -0.12665
C          C       0.79764   0.10356   0.82161   0.09264
C          C       0.02601   0.33763   0.93426   0.63685
C          C       0.25638   0.14339   0.03563   0.07676
C          C       0.37627   0.18963  -0.00125  -0.09965
C          C       0.41367   0.11482   0.96281  -0.03616
C          C       0.33010  -0.00103   0.96499  -0.13861
C          C       0.21165   0.96184   0.00285   0.10258
C          C       0.45871   0.31453   0.99769   0.63803
I          I       0.84934   0.84673   0.75000  -0.44213
I          I       0.31915   0.17191   0.75000  -0.42926
I          I       0.15066   0.15327   0.25000  -0.44221
I          I       0.68085   0.82808   0.25000  -0.42918
N          N       0.21014   0.90590   0.66686  -0.17776
N          N       0.95573   0.10668   0.66429  -0.17729
N          N       0.17470   0.03183   0.46185  -0.27013
N          N       0.78985   0.09410   0.16687  -0.17768
N          N       0.04427   0.89332   0.16429  -0.17736
N          N       0.82529   0.96817   0.96185  -0.27015
N          N       0.78986   0.09410   0.33313  -0.17765
N          N       0.04427   0.89332   0.33571  -0.17736
N          N       0.82530   0.96817   0.53815  -0.27029
N          N       0.21015   0.90590   0.83313  -0.17765
N          N       0.95573   0.10668   0.83571  -0.17729
N          N       0.17471   0.03183   0.03815  -0.27019
O          O       0.96427   0.64472   0.56666  -0.67548
O          O       0.20964   0.59957   0.55413  -0.66288
O          O       0.94434   0.40056   0.54283  -0.76412
O          O       0.17588   0.34350   0.55346  -0.61148
O          O       0.57198   0.35326   0.53492  -0.64180
O          O       0.41366   0.38041   0.46990  -0.71786
O          O       0.03573   0.35528   0.06666  -0.67535
O          O       0.79036   0.40043   0.05413  -0.66287
O          O       0.05566   0.59943   0.04283  -0.76414
O          O       0.82413   0.65649   0.05346  -0.61158
O          O       0.42802   0.64674   0.03492  -0.64182
O          O       0.58634   0.61959   0.96990  -0.71780
O          O       0.03573   0.35528   0.43334  -0.67549
O          O       0.79036   0.40043   0.44587  -0.66292
O          O       0.05566   0.59943   0.45717  -0.76412
O          O       0.82412   0.65649   0.44654  -0.61150
O          O       0.42802   0.64674   0.46508  -0.64180
O          O       0.58634   0.61959   0.53010  -0.71788
O          O       0.96427   0.64472   0.93334  -0.67537
O          O       0.20964   0.59957   0.94587  -0.66285
O          O       0.94434   0.40056   0.95717  -0.76416
O          O       0.17587   0.34350   0.94654  -0.61158
O          O       0.57198   0.35326   0.96507  -0.64182
O          O       0.41366   0.38041   0.03010  -0.71788

