data_crystal

_audit_creation_method 'AiiDA-DDEC plugin'

_cell_length_a         7.16504
_cell_length_b        11.53391
_cell_length_c        26.39437

_cell_angle_alpha     90.27576
_cell_angle_beta     91.72703
_cell_angle_gamma     71.34117

_symmetry_space_group_name_Hall 'P 1'
_symmetry_space_group_name_H-M  'P 1'

loop_
_symmetry_equiv_pos_as_xyz
 'x,y,z'

loop_
_atom_site_label
_atom_site_type_symbol
_atom_site_fract_x
_atom_site_fract_y
_atom_site_fract_z
_atom_site_charge
Co         Co      0.08957   0.77754   0.24759   0.64178
Co         Co      0.89072   0.22211   0.75057   0.64286
Cu         Cu      0.42021   0.12597   0.02908   0.72340
Cu         Cu      0.46845   0.12857   0.47088   0.71995
Cu         Cu      0.58577   0.87166   0.97038   0.72157
Cu         Cu      0.55021   0.88148   0.53349   0.72197
H          H       0.46395   0.93677   0.11848   0.11972
H          H       0.73816   0.91139   0.19880   0.11964
H          H       0.95910   0.05271   0.16962   0.13107
H          H       0.82190   0.16554   0.04234   0.10803
H          H       0.95661   0.18359   0.09785   0.12200
H          H       0.79978   0.37628   0.02246   0.11302
H          H       0.50161   0.70018   0.01292   0.09107
H          H       0.67725   0.57839   0.98244   0.09643
H          H       0.98063   0.49903   0.93076   0.13105
H          H       0.02459   0.11927   0.96182   0.13079
H          H       0.53397   0.30304   0.15711   0.12168
H          H       0.41353   0.48409   0.21136   0.10113
H          H       0.35628   0.63467   0.18410   0.10889
H          H       0.09936   0.39584   0.15330   0.13711
H          H       0.70882   0.50195   0.17648   0.12775
H          H       0.70049   0.72280   0.21886   0.10739
H          H       0.61224   0.93423   0.38163   0.11699
H          H       0.35845   0.90482   0.30368   0.12409
H          H      -0.00421   0.04689   0.33356   0.13141
H          H       0.01731   0.16260   0.45963   0.10581
H          H       0.86987   0.17384   0.40335   0.12091
H          H       0.83589   0.37013   0.47974   0.10910
H          H       0.81756   0.68931   0.48750   0.09778
H          H       0.74763   0.57337   0.51643   0.09551
H          H       0.51355   0.50154   0.56822   0.12986
H          H       0.86492   0.12113   0.54140   0.13016
H          H       0.14829   0.29538   0.34047   0.12092
H          H       0.07635   0.47293   0.28235   0.09982
H          H       0.97714   0.62673   0.30647   0.10426
H          H       0.47510   0.38485   0.34389   0.13954
H          H       0.75942   0.48945   0.32285   0.12750
H          H       0.54897   0.70927   0.27725   0.10606
H          H       0.53618   0.06561   0.88125   0.11795
H          H       0.26106   0.08905   0.80142   0.12041
H          H       0.04256   0.94719   0.83115   0.13089
H          H       0.17921   0.83253   0.95769   0.10752
H          H       0.04701   0.81766   0.90119   0.12276
H          H       0.20290   0.62495   0.97647   0.11339
H          H       0.49944   0.30126   0.98616   0.09197
H          H       0.32604   0.42306   0.01675   0.09700
H          H       0.01725   0.49609   0.06769   0.12968
H          H       0.98588   0.87527   0.04017   0.12933
H          H       0.46336   0.69723   0.84106   0.12314
H          H       0.57608   0.51447   0.78627   0.10165
H          H       0.63682   0.36399   0.81413   0.10515
H          H       0.89353   0.60177   0.84761   0.13518
H          H       0.28370   0.49571   0.82362   0.12714
H          H       0.28738   0.28019   0.77711   0.10514
H          H       0.41304   0.06727   0.62332   0.11797
H          H       0.67010   0.08723   0.70239   0.11975
H          H       0.03038   0.94563   0.67111   0.13185
H          H       0.00645   0.83701   0.54443   0.10857
H          H       0.15153   0.81382   0.60178   0.12119
H          H       0.17738   0.62806   0.52277   0.11255
H          H       0.20338   0.30356   0.51279   0.09352
H          H       0.25005   0.42385   0.48089   0.09647
H          H       0.47080   0.53258   0.42388   0.13538
H          H       0.15804   0.90791   0.46859   0.13103
H          H       0.85485   0.69543   0.65989   0.12267
H          H       0.89944   0.52231   0.71117   0.10047
H          H       0.00146   0.36954   0.68697   0.10698
H          H       0.49634   0.60505   0.65354   0.13767
H          H       0.21889   0.49424   0.67676   0.12538
H          H       0.44251   0.27620   0.72135   0.10653
C          C       0.57532   0.98124   0.12497   0.02514
C          C       0.71797   0.96630   0.16454  -0.21507
C          C       0.82679   0.04005   0.15218  -0.06504
C          C       0.80699   0.19089   0.08262  -0.17354
C          C       0.66999   0.32143   0.08732   0.10032
C          C       0.69114   0.40552   0.05197  -0.15863
C          C       0.57711   0.52997   0.05372   0.07684
C          C       0.62863   0.61796   0.01950  -0.15074
C          C       0.02718   0.40169   0.93997  -0.10604
C          C       0.91898   0.32092   0.93806  -0.10499
C          C       0.04753   0.20692   0.95640  -0.01485
C          C       0.42867   0.56400   0.08939  -0.04027
C          C       0.42220   0.48946   0.12983   0.05717
C          C       0.54165   0.36547   0.12691  -0.16393
C          C       0.33410   0.54432   0.17957  -0.14328
C          C       0.02517   0.48298   0.17079  -0.06245
C          C       0.83033   0.53725   0.18303  -0.20761
C          C       0.82089   0.65156   0.20291   0.00992
C          C       0.45506   0.97722   0.37619   0.02568
C          C       0.32539   0.95989   0.33751  -0.21405
C          C       0.14049   0.03416   0.35060  -0.06822
C          C       0.00816   0.18535   0.41894  -0.17299
C          C       0.00282   0.31687   0.41189   0.10234
C          C       0.90092   0.40083   0.44788  -0.15769
C          C       0.87055   0.52677   0.44237   0.06225
C          C       0.75306   0.61666   0.47990  -0.15409
C          C       0.57074   0.40464   0.55919  -0.09979
C          C       0.76172   0.32380   0.56304  -0.11481
C          C       0.75176   0.20934   0.54529  -0.01211
C          C       0.95209   0.56082   0.40069  -0.03467
C          C       0.04867   0.48483   0.36295   0.04492
C          C       0.07486   0.35912   0.36975  -0.16910
C          C       0.08824   0.53598   0.31321  -0.14114
C          C       0.46065   0.47214   0.32590  -0.06555
C          C       0.60249   0.52504   0.31453  -0.21318
C          C       0.49817   0.63901   0.29309   0.00955
C          C       0.42631   0.01976   0.87506   0.02836
C          C       0.28230   0.03466   0.83584  -0.21394
C          C       0.17476   0.96046   0.84841  -0.06504
C          C       0.19603   0.80911   0.91719  -0.17134
C          C       0.33202   0.67880   0.91165   0.10114
C          C       0.31066   0.59480   0.94692  -0.15957
C          C       0.41971   0.46987   0.94458   0.07619
C          C       0.37122   0.38268   0.97965  -0.15127
C          C       0.97338   0.59405   0.05942  -0.09379
C          C       0.08687   0.67201   0.06144  -0.12243
C          C       0.95878   0.78834   0.04460  -0.00676
C          C       0.56200   0.43525   0.90777  -0.03604
C          C       0.57070   0.51026   0.86784   0.05280
C          C       0.45669   0.63493   0.87143  -0.16572
C          C       0.65695   0.45512   0.81818  -0.14256
C          C       0.96622   0.51611   0.82874  -0.06106
C          C       0.16067   0.46225   0.81594  -0.20948
C          C       0.16794   0.35025   0.79394   0.01250
C          C       0.56997   0.02285   0.62870   0.02394
C          C       0.70141   0.03518   0.66782  -0.21489
C          C       0.88496   0.95955   0.65432  -0.06837
C          C       0.00991   0.80988   0.58469  -0.17739
C          C      -0.00036   0.68047   0.58856   0.10194
C          C       0.10034   0.59746   0.55228  -0.16342
C          C       0.11100   0.47321   0.55363   0.07704
C          C       0.24761   0.38521   0.51857  -0.15076
C          C       0.42302   0.62599   0.43759  -0.12897
C          C       0.24116   0.71501   0.43712  -0.01556
C          C       0.26266   0.81953   0.46020  -0.04898
C          C      -0.00113   0.43912   0.58970  -0.03661
C          C       0.92001   0.51209   0.63062   0.05516
C          C       0.91886   0.63540   0.62851  -0.15986
C          C       0.88557   0.45887   0.68064  -0.14055
C          C       0.51376   0.51710   0.67128  -0.06286
C          C       0.37685   0.46126   0.68375  -0.20829
C          C       0.48722   0.34836   0.70499   0.01110
N          N       0.59481   0.06126   0.09050  -0.24083
N          N       0.74851   0.09817   0.10792   0.20152
N          N       0.21439   0.33634   0.95877   0.19863
N          N       0.22653   0.21818   0.97011  -0.22688
N          N       0.12270   0.56402   0.18254   0.19379
N          N      -0.00147   0.66786   0.20289  -0.23765
N          N       0.35650   0.05862   0.41044  -0.24227
N          N       0.16348   0.09350   0.39413   0.19874
N          N       0.45347   0.33952   0.53936   0.19728
N          N       0.56308   0.22095   0.52972  -0.21993
N          N       0.28192   0.55426   0.31255   0.19034
N          N       0.30315   0.65682   0.29110  -0.24402
N          N       0.40938   0.93867   0.90948  -0.24277
N          N       0.25491   0.90209   0.89244   0.20065
N          N       0.78593   0.66269   0.04164   0.19431
N          N       0.77678   0.78086   0.03113  -0.22910
N          N       0.86769   0.43647   0.81551   0.19334
N          N       0.98967   0.33476   0.79320  -0.24072
N          N       0.66645   0.94317   0.59378  -0.23979
N          N       0.85938   0.90375   0.61006   0.20182
N          N       0.55064   0.67850   0.46106   0.20808
N          N       0.45470   0.79534   0.47540  -0.22223
N          N       0.69547   0.43764   0.68367   0.19398
N          N       0.68070   0.33409   0.70563  -0.24104
Cl         Cl      0.27677   0.86027   0.20594  -0.45114
Cl         Cl      0.21115   0.26505   0.08162  -0.52225
Cl         Cl      0.68530   0.06288   0.97497  -0.48827
Cl         Cl      0.84014   0.86859   0.29414  -0.44518
Cl         Cl      0.52845   0.26348   0.41620  -0.52135
Cl         Cl      0.26845   0.06851   0.52719  -0.47642
Cl         Cl      0.72775   0.13045   0.79543  -0.44501
Cl         Cl      0.79618   0.73452   0.91811  -0.51746
Cl         Cl      0.31758   0.93931   0.02482  -0.48394
Cl         Cl      0.14911   0.13811   0.70510  -0.44635
Cl         Cl      0.48392   0.74365   0.58747  -0.53040
Cl         Cl      0.76010   0.93926   0.47702  -0.49669

