data_crystal

_audit_creation_method 'AiiDA-DDEC plugin'

_cell_length_a         9.82738
_cell_length_b        10.75873
_cell_length_c        23.54027

_cell_angle_alpha     90.00010
_cell_angle_beta     89.99955
_cell_angle_gamma     102.88789

_symmetry_space_group_name_Hall 'P 1'
_symmetry_space_group_name_H-M  'P 1'

loop_
_symmetry_equiv_pos_as_xyz
 'x,y,z'

loop_
_atom_site_label
_atom_site_type_symbol
_atom_site_fract_x
_atom_site_fract_y
_atom_site_fract_z
_atom_site_charge
Cd         Cd      0.47515   0.31845   0.10474   0.86458
Cd         Cd      0.02484   0.68155   0.60474   0.86461
Cd         Cd      0.52484   0.68155   0.89526   0.86459
Cd         Cd      0.97516   0.31845   0.39526   0.86454
H          H       0.24106   0.96969   0.98591   0.11460
H          H       0.95836   0.16846   0.06580   0.11246
H          H       0.77868   0.53043   0.95732   0.10805
H          H       0.99416   0.38035   0.09069   0.10816
H          H       0.54226   0.61483   0.05266   0.12600
H          H       0.27747   0.48223   0.19100   0.11521
H          H       0.24930   0.72629   0.16246   0.12733
H          H       0.32485   0.84365   0.05506   0.09555
H          H       0.49189   0.82370   0.03317   0.11488
H          H       0.42600   0.94994   0.14428   0.06997
H          H       0.50884   0.02893   0.08426   0.10604
H          H       0.70444   0.91010   0.09718   0.08702
H          H       0.62091   0.83787   0.15850   0.07770
H          H       0.72731   0.12821   0.14249   0.11643
H          H       0.64302   0.05484   0.20355   0.08143
H          H       0.83409   0.93105   0.21470   0.08439
H          H       0.92046   0.01423   0.15534   0.09990
H          H       0.08764   0.22018   0.17244   0.14425
H          H       0.15561   0.37215   0.26943   0.12161
H          H       0.79240   0.09110   0.30326   0.10639
H          H       0.25893   0.03031   0.48591   0.11485
H          H       0.54164   0.83154   0.56580   0.11237
H          H       0.72131   0.46958   0.45732   0.10780
H          H       0.50584   0.61965   0.59069   0.10813
H          H       0.95774   0.38518   0.55265   0.12607
H          H       0.22252   0.51778   0.69100   0.11522
H          H       0.25070   0.27372   0.66246   0.12718
H          H       0.17514   0.15636   0.55506   0.09529
H          H       0.00811   0.17631   0.53317   0.11491
H          H       0.07399   0.05007   0.64428   0.06978
H          H       0.99116   0.97107   0.58426   0.10584
H          H       0.79556   0.08991   0.59718   0.08724
H          H       0.87908   0.16213   0.65850   0.07772
H          H       0.77269   0.87179   0.64249   0.11638
H          H       0.85698   0.94516   0.70355   0.08132
H          H       0.66591   0.06895   0.71470   0.08449
H          H       0.57954   0.98577   0.65534   0.09999
H          H       0.41235   0.77982   0.67244   0.14428
H          H       0.34439   0.62786   0.76943   0.12169
H          H       0.70759   0.90891   0.80326   0.10629
H          H       0.75893   0.03031   0.01409   0.11477
H          H       0.04164   0.83154   0.93420   0.11236
H          H       0.22131   0.46958   0.04268   0.10784
H          H       0.00584   0.61965   0.90931   0.10817
H          H       0.45773   0.38518   0.94734   0.12604
H          H       0.72253   0.51778   0.80900   0.11529
H          H       0.75070   0.27371   0.83754   0.12720
H          H       0.67514   0.15636   0.94494   0.09519
H          H       0.50811   0.17631   0.96682   0.11489
H          H       0.57399   0.05006   0.85572   0.06994
H          H       0.49116   0.97107   0.91574   0.10576
H          H       0.29556   0.08991   0.90281   0.08719
H          H       0.37908   0.16213   0.84150   0.07783
H          H       0.27268   0.87179   0.85751   0.11634
H          H       0.35698   0.94516   0.79644   0.08134
H          H       0.16591   0.06895   0.78530   0.08452
H          H       0.07953   0.98577   0.84466   0.09998
H          H       0.91235   0.77982   0.82756   0.14419
H          H       0.84439   0.62786   0.73057   0.12172
H          H       0.20759   0.90891   0.69674   0.10632
H          H       0.74106   0.96969   0.51409   0.11471
H          H       0.45835   0.16846   0.43420   0.11250
H          H       0.27868   0.53042   0.54268   0.10795
H          H       0.49415   0.38035   0.40931   0.10818
H          H       0.04226   0.61483   0.44734   0.12599
H          H       0.77747   0.48223   0.30900   0.11522
H          H       0.74930   0.72629   0.33754   0.12737
H          H       0.82485   0.84364   0.44494   0.09558
H          H       0.99188   0.82370   0.46683   0.11485
H          H       0.92600   0.94994   0.35572   0.06999
H          H       0.00883   0.02893   0.41574   0.10597
H          H       0.20443   0.91010   0.40282   0.08696
H          H       0.12091   0.83787   0.34150   0.07766
H          H       0.22731   0.12821   0.35751   0.11642
H          H       0.14301   0.05484   0.29644   0.08149
H          H       0.33408   0.93105   0.28530   0.08441
H          H       0.42046   0.01423   0.34466   0.09986
H          H       0.58764   0.22018   0.32756   0.14422
H          H       0.65561   0.37215   0.23057   0.12166
H          H       0.29240   0.09110   0.19674   0.10640
C          C       0.23179   0.16026   0.06059   0.54633
C          C       0.11236   0.07730   0.02933  -0.02990
C          C       0.13530   0.98263   0.99180  -0.11086
C          C       0.97589   0.09403   0.03731  -0.10535
C          C       0.73434   0.39515   0.05465   0.54447
C          C       0.87182   0.44887   0.02669  -0.03016
C          C       0.87593   0.51717   0.97561  -0.10587
C          C      -0.00288   0.43249   0.05097  -0.10759
C          C       0.46934   0.61199   0.08734   0.09788
C          C       0.33001   0.54702   0.15870  -0.04484
C          C       0.31476   0.66726   0.14500  -0.12907
C          C       0.42618   0.83030   0.07029  -0.07477
C          C       0.49615   0.94028   0.10895  -0.17466
C          C       0.63652   0.92495   0.13251  -0.14965
C          C       0.70964   0.04016   0.16781  -0.18747
C          C       0.84898   0.02045   0.19051  -0.05985
C          C       0.03831   0.21704   0.21397  -0.12423
C          C       0.06966   0.29159   0.26173  -0.04692
C          C       0.88344   0.14613   0.28179   0.06422
C          C       0.26821   0.83974   0.56059   0.54658
C          C       0.38763   0.92271   0.52933  -0.03011
C          C       0.36469   0.01738   0.49180  -0.11084
C          C       0.52411   0.90597   0.53731  -0.10541
C          C       0.76566   0.60485   0.55465   0.54442
C          C       0.62818   0.55113   0.52669  -0.03013
C          C       0.62406   0.48284   0.47561  -0.10574
C          C       0.50287   0.56752   0.55097  -0.10755
C          C       0.03066   0.38801   0.58733   0.09784
C          C       0.16999   0.45299   0.65870  -0.04503
C          C       0.18523   0.33275   0.64500  -0.12925
C          C       0.07381   0.16971   0.57029  -0.07473
C          C       0.00385   0.05972   0.60895  -0.17438
C          C       0.86347   0.07505   0.63251  -0.14973
C          C       0.79036   0.95985   0.66781  -0.18741
C          C       0.65102   0.97956   0.69051  -0.05980
C          C       0.46168   0.78296   0.71397  -0.12405
C          C       0.43033   0.70841   0.76173  -0.04700
C          C       0.61655   0.85387   0.78179   0.06454
C          C       0.76821   0.83974   0.93941   0.54647
C          C       0.88763   0.92271   0.97066  -0.02993
C          C       0.86469   0.01737   0.00820  -0.11087
C          C       0.02411   0.90597   0.96269  -0.10549
C          C       0.26566   0.60486   0.94535   0.54455
C          C       0.12817   0.55113   0.97331  -0.03034
C          C       0.12406   0.48284   0.02439  -0.10575
C          C       0.00287   0.56752   0.94903  -0.10726
C          C       0.53066   0.38801   0.91266   0.09783
C          C       0.66999   0.45299   0.84130  -0.04485
C          C       0.68523   0.33275   0.85500  -0.12935
C          C       0.57381   0.16970   0.92970  -0.07466
C          C       0.50385   0.05972   0.89105  -0.17472
C          C       0.36347   0.07505   0.86749  -0.14958
C          C       0.29036   0.95985   0.83219  -0.18741
C          C       0.15102   0.97956   0.80948  -0.05986
C          C       0.96168   0.78296   0.78603  -0.12410
C          C       0.93033   0.70841   0.73827  -0.04704
C          C       0.11655   0.85387   0.71821   0.06446
C          C       0.73179   0.16026   0.43941   0.54623
C          C       0.61236   0.07730   0.47067  -0.03003
C          C       0.63531   0.98263   0.50820  -0.11095
C          C       0.47589   0.09404   0.46269  -0.10528
C          C       0.23434   0.39515   0.44535   0.54430
C          C       0.37182   0.44888   0.47331  -0.02987
C          C       0.37593   0.51716   0.52439  -0.10580
C          C       0.49712   0.43249   0.44903  -0.10771
C          C       0.96934   0.61199   0.41266   0.09770
C          C       0.83001   0.54702   0.34130  -0.04487
C          C       0.81476   0.66726   0.35500  -0.12900
C          C       0.92618   0.83030   0.42971  -0.07481
C          C       0.99614   0.94028   0.39105  -0.17455
C          C       0.13652   0.92495   0.36749  -0.14959
C          C       0.20963   0.04016   0.33219  -0.18745
C          C       0.34897   0.02045   0.30949  -0.05994
C          C       0.53832   0.21705   0.28603  -0.12430
C          C       0.56966   0.29159   0.23827  -0.04689
C          C       0.38344   0.14613   0.21821   0.06437
N          N       0.42694   0.51363   0.12255  -0.30883
N          N       0.40353   0.70691   0.09951   0.05629
N          N       0.92063   0.12427   0.22764   0.05230
N          N       0.97243   0.24669   0.30361  -0.29277
N          N       0.07306   0.48638   0.62255  -0.30847
N          N       0.09647   0.29309   0.59950   0.05655
N          N       0.57937   0.87574   0.72764   0.05205
N          N       0.52757   0.75331   0.80361  -0.29309
N          N       0.57306   0.48638   0.87745  -0.30845
N          N       0.59647   0.29309   0.90049   0.05648
N          N       0.07937   0.87574   0.77236   0.05208
N          N       0.02757   0.75331   0.69639  -0.29286
N          N       0.92694   0.51363   0.37745  -0.30880
N          N       0.90353   0.70691   0.40049   0.05638
N          N       0.42063   0.12427   0.27236   0.05224
N          N       0.47243   0.24669   0.19639  -0.29282
O          O       0.35642   0.16318   0.04281  -0.56205
O          O       0.20707   0.22454   0.10302  -0.56270
O          O       0.62560   0.42561   0.03400  -0.55931
O          O       0.72822   0.32222   0.09783  -0.57663
O          O       0.14357   0.83682   0.54281  -0.56197
O          O       0.29293   0.77546   0.60302  -0.56293
O          O       0.87439   0.57440   0.53400  -0.55934
O          O       0.77177   0.67777   0.59783  -0.57658
O          O       0.64357   0.83682   0.95719  -0.56194
O          O       0.79293   0.77546   0.89698  -0.56281
O          O       0.37439   0.57440   0.96600  -0.55963
O          O       0.27178   0.67778   0.90217  -0.57642
O          O       0.85642   0.16319   0.45719  -0.56211
O          O       0.70707   0.22454   0.39698  -0.56249
O          O       0.12560   0.42561   0.46600  -0.55914
O          O       0.22822   0.32223   0.40217  -0.57661

