data_crystal

_audit_creation_method 'AiiDA-DDEC plugin'

_cell_length_a         9.80126
_cell_length_b        13.43819
_cell_length_c        18.75139

_cell_angle_alpha     110.95336
_cell_angle_beta     102.09260
_cell_angle_gamma     89.94907

_symmetry_space_group_name_Hall 'P 1'
_symmetry_space_group_name_H-M  'P 1'

loop_
_symmetry_equiv_pos_as_xyz
 'x,y,z'

loop_
_atom_site_label
_atom_site_type_symbol
_atom_site_fract_x
_atom_site_fract_y
_atom_site_fract_z
_atom_site_charge
Co         Co      0.84207   0.40512   0.28767   0.81572
Co         Co      0.65813   0.11778   0.71266   0.81513
Co         Co      0.15751   0.59474   0.71258   0.81642
Co         Co      0.34395   0.88164   0.28757   0.81557
H          H       0.25127   0.46975   0.51427   0.11920
H          H       0.86173   0.32488   0.48474   0.09872
H          H       0.95270   0.32462   0.62339   0.13269
H          H       0.64969   0.22368   0.54736   0.10397
H          H       0.00495   0.42766   0.43777   0.09115
H          H       0.37206   0.46880   0.30507   0.14724
H          H       0.11864   0.42886   0.23756   0.08764
H          H       0.56798   0.20852   0.40612   0.12535
H          H       0.54724   0.44400   0.42274   0.11211
H          H       0.51559   0.57906   0.45896   0.10777
H          H       0.83029   0.37443   0.11378   0.10079
H          H       0.89249   0.19091   0.25367   0.10570
H          H       0.00423   0.05599   0.16204   0.14957
H          H       0.93409   0.24107   0.01196   0.12650
H          H       0.06389   0.08324   0.97468   0.10823
H          H       0.14846   0.04049   0.05057   0.10669
H          H       0.24948   0.95577   0.48598   0.11934
H          H       0.63741   0.84090   0.51496   0.09920
H          H       0.54697   0.70076   0.37620   0.13240
H          H       0.85032   0.67737   0.45274   0.10386
H          H       0.49595   0.99058   0.56239   0.09148
H          H       0.12818   0.16289   0.69535   0.14794
H          H       0.38187   0.19101   0.76262   0.08793
H          H       0.93150   0.80319   0.59388   0.12563
H          H       0.95357   0.01984   0.57720   0.11207
H          H       0.98398   0.11909   0.54109   0.10768
H          H       0.66943   0.26113   0.88611   0.10113
H          H       0.60784   0.93808   0.74664   0.10525
H          H       0.49654   0.89464   0.83843   0.14969
H          H       0.56601   0.22975   0.98822   0.12671
H          H       0.43652   0.10915   0.02564   0.10783
H          H       0.35174   0.99093   0.94963   0.10707
H          H       0.74825   0.53069   0.48576   0.11907
H          H       0.13936   0.67555   0.51530   0.09899
H          H       0.05185   0.67489   0.37601   0.13232
H          H       0.35378   0.77687   0.45404   0.10360
H          H       0.99445   0.57317   0.56228   0.09072
H          H       0.62761   0.53108   0.69485   0.14713
H          H       0.88083   0.57116   0.76236   0.08776
H          H       0.43292   0.79235   0.59473   0.12430
H          H       0.45225   0.55643   0.57721   0.11223
H          H       0.48343   0.42131   0.54103   0.10789
H          H       0.16880   0.62580   0.88635   0.10041
H          H       0.10685   0.80948   0.74658   0.10658
H          H       0.99581   0.94470   0.83848   0.14976
H          H       0.06545   0.75936   0.98832   0.12652
H          H       0.93602   0.91729   0.02571   0.10816
H          H       0.85147   0.96006   0.94982   0.10597
H          H       0.75348   0.04457   0.51396   0.11944
H          H       0.36342   0.15952   0.48489   0.09885
H          H       0.45329   0.29878   0.62318   0.13200
H          H       0.15011   0.32294   0.54723   0.10402
H          H       0.50702   0.01051   0.43762   0.09076
H          H       0.87399   0.83720   0.30437   0.14838
H          H       0.62045   0.80985   0.23722   0.08763
H          H       0.06860   0.19601   0.40604   0.12566
H          H       0.04972   0.97860   0.42303   0.11382
H          H       0.01755   0.87968   0.45909   0.10923
H          H       0.33160   0.73907   0.11403   0.10111
H          H       0.39261   0.06202   0.25369   0.10489
H          H       0.50312   0.10587   0.16170   0.14897
H          H       0.43426   0.77088   0.01182   0.12666
H          H       0.56369   0.89171   0.97454   0.10803
H          H       0.64820   0.00993   0.05062   0.10672
C          C       0.22787   0.46040   0.45289  -0.18565
C          C       0.76475   0.28237   0.48151  -0.04288
C          C       0.84984   0.28690   0.61672  -0.22494
C          C       0.74932   0.26219   0.54982  -0.05160
C          C       0.08982   0.43833   0.41132   0.07651
C          C       0.33328   0.47214   0.41581   0.17471
C          C       0.83137   0.25332   0.68164   0.59396
C          C       0.68380   0.27907   0.34512   0.59530
C          C       0.29356   0.45957   0.33642  -0.17222
C          C       0.15304   0.43788   0.29878   0.08697
C          C       0.66608   0.25319   0.41357  -0.23582
C          C       0.48396   0.50004   0.45837  -0.20328
C          C       0.86802   0.30161   0.12098   0.06795
C          C       0.90248   0.19920   0.19930   0.09560
C          C       0.96407   0.12292   0.14651  -0.18046
C          C       0.92677   0.22715   0.06484  -0.19957
C          C       0.97845   0.13619   0.07750   0.15850
C          C       0.04566   0.05412   0.01990  -0.20058
C          C       0.27283   0.00762   0.54737  -0.18470
C          C       0.73470   0.80190   0.51853  -0.04175
C          C       0.65032   0.67051   0.38346  -0.22430
C          C       0.75050   0.71327   0.45041  -0.05341
C          C       0.41092   0.02740   0.58885   0.07536
C          C       0.16724   0.05605   0.58446   0.17513
C          C       0.66935   0.57257   0.31824   0.59183
C          C       0.81653   0.93485   0.65470   0.59547
C          C       0.20676   0.12269   0.66387  -0.17243
C          C       0.34736   0.13896   0.70140   0.08552
C          C       0.83348   0.84055   0.58639  -0.23585
C          C       0.01660   0.04084   0.54170  -0.20333
C          C       0.63201   0.18122   0.87920   0.06542
C          C       0.59791   0.00056   0.80105   0.09538
C          C       0.53660   0.97704   0.85395  -0.17897
C          C       0.57347   0.16290   0.93543  -0.19945
C          C       0.52210   0.05931   0.92290   0.15851
C          C       0.45462   0.03481   0.98043  -0.20022
C          C       0.77163   0.53997   0.54713  -0.18427
C          C       0.23669   0.71824   0.51916  -0.04361
C          C       0.15497   0.71255   0.38328  -0.22390
C          C       0.25389   0.73806   0.45091  -0.05115
C          C       0.90971   0.56212   0.58871   0.07612
C          C       0.66620   0.52798   0.58412   0.17564
C          C       0.17501   0.74442   0.31788   0.59141
C          C       0.31698   0.72309   0.65634   0.59857
C          C       0.70601   0.54040   0.66347  -0.17225
C          C       0.84651   0.56210   0.70113   0.08593
C          C       0.33466   0.74797   0.58744  -0.23378
C          C       0.51543   0.50024   0.54160  -0.20547
C          C       0.13131   0.69873   0.87924   0.06585
C          C       0.09705   0.80122   0.80097   0.09667
C          C       0.03577   0.87764   0.85388  -0.18025
C          C       0.07283   0.77329   0.93546  -0.19866
C          C       0.02135   0.86433   0.92286   0.15806
C          C       0.95426   0.94642   0.98050  -0.19897
C          C       0.73001   0.99268   0.45257  -0.18610
C          C       0.26592   0.19836   0.48144  -0.04261
C          C       0.35010   0.32943   0.61659  -0.22354
C          C       0.24994   0.28702   0.54958  -0.05316
C          C       0.59192   0.97346   0.41110   0.07680
C          C       0.83541   0.94376   0.41550   0.17680
C          C       0.33129   0.42740   0.68188   0.59210
C          C       0.18372   0.06438   0.34533   0.59658
C          C       0.79565   0.87747   0.33600  -0.17414
C          C       0.65503   0.86171   0.29848   0.08710
C          C       0.16697   0.15906   0.41367  -0.23541
C          C       0.98592   0.95811   0.45839  -0.20879
C          C       0.36869   0.81906   0.12094   0.06561
C          C       0.40246  -0.00032   0.19919   0.09589
C          C       0.46338   0.02342   0.14625  -0.17916
C          C       0.42686   0.83760   0.06467  -0.19817
C          C       0.47795   0.94128   0.07725   0.15809
C          C       0.54538   0.96596   0.01977  -0.20017
N          N       0.05132   0.42772   0.33532  -0.25477
N          N       0.85664   0.28909   0.18807  -0.27209
N          N       0.44923   0.09276   0.66481  -0.25431
N          N       0.64347   0.10161   0.81219  -0.27231
N          N       0.94828   0.57240   0.66466  -0.25353
N          N       0.14263   0.71123   0.81215  -0.27200
N          N       0.55332   0.90820   0.33513  -0.25388
N          N       0.35733   0.89852   0.18803  -0.27115
O          O       0.93452   0.24226   0.72891  -0.53569
O          O       0.79243   0.34738   0.36037  -0.59314
O          O       0.69988   0.23197   0.68192  -0.58381
O          O       0.60057   0.23846   0.28021  -0.55113
O          O       0.56630   0.51514   0.27023  -0.53564
O          O       0.70736   0.98769   0.63986  -0.59219
O          O       0.80078   0.55033   0.31826  -0.58432
O          O       0.90100   0.95912   0.71916  -0.55103
O          O       0.07250   0.75450   0.26964  -0.53724
O          O       0.20707   0.65651   0.64200  -0.59658
O          O       0.30674   0.76610   0.31818  -0.58163
O          O       0.40126   0.76320   0.72085  -0.55066
O          O       0.43443   0.48487   0.72970  -0.53507
O          O       0.29217   0.01090   0.36039  -0.59501
O          O       0.19978   0.44960   0.68198  -0.58527
O          O       0.09973   0.04045   0.28075  -0.55082

