data_crystal

_audit_creation_method 'AiiDA-DDEC plugin'

_cell_length_a        11.18932
_cell_length_b        17.73968
_cell_length_c        17.71943

_cell_angle_alpha     78.84238
_cell_angle_beta     71.56042
_cell_angle_gamma     71.52895

_symmetry_space_group_name_Hall 'P 1'
_symmetry_space_group_name_H-M  'P 1'

loop_
_symmetry_equiv_pos_as_xyz
 'x,y,z'

loop_
_atom_site_label
_atom_site_type_symbol
_atom_site_fract_x
_atom_site_fract_y
_atom_site_fract_z
_atom_site_charge
Zn         Zn      0.65512   0.32332   0.92773   0.69315
Zn         Zn      0.09415   0.92757   0.32289   0.69287
Zn         Zn      0.84456   0.57217   0.17734   0.69278
Zn         Zn      0.40582   0.17686   0.57220   0.69310
Zn         Zn      0.34487   0.67668   0.07227   0.69320
Zn         Zn      0.90584   0.07243   0.67711   0.69277
Zn         Zn      0.15543   0.42783   0.82265   0.69283
Zn         Zn      0.59417   0.82314   0.42779   0.69318
Zn         Zn      0.74990   0.25020   0.24963   0.69079
Zn         Zn      0.25009   0.74980   0.75037   0.69078
H          H       0.74441   0.10604   0.16311   0.12987
H          H       0.68849   0.13895   0.01558   0.12228
H          H       0.87559   0.34141   0.76884   0.12111
H          H       0.88000   0.55278   0.83141   0.11733
H          H       0.64941   0.50514   0.88307   0.11980
H          H       0.98721   0.16287   0.10568   0.12871
H          H       0.15715   0.01542   0.13917   0.12327
H          H       0.01423   0.76877   0.34165   0.12099
H          H       0.73597   0.83107   0.55255   0.11760
H          H       0.96184   0.88336   0.50507   0.11939
H          H       0.75519   0.33705   0.39422   0.12930
H          H       0.81183   0.48417   0.36084   0.12356
H          H       0.62371   0.73138   0.15869   0.12069
H          H       0.62030   0.66859   0.94728   0.11729
H          H       0.85059   0.61681   0.99513   0.11822
H          H       0.51292   0.39417   0.33712   0.13030
H          H       0.34295   0.36096   0.48463   0.12297
H          H       0.48549   0.15826   0.73097   0.12033
H          H       0.76430   0.94767   0.66886   0.11783
H          H       0.53848   0.99499   0.61646   0.11922
H          H       0.25559   0.89396   0.83689   0.12994
H          H       0.31150   0.86105   0.98442   0.12220
H          H       0.12440   0.65859   0.23117   0.12120
H          H       0.11999   0.44722   0.16858   0.11747
H          H       0.35059   0.49486   0.11692   0.11969
H          H       0.01279   0.83712   0.89431   0.12860
H          H       0.84284   0.98457   0.86083   0.12320
H          H       0.98577   0.23123   0.65835   0.12097
H          H       0.26402   0.16893   0.44745   0.11762
H          H       0.03815   0.11664   0.49494   0.11960
H          H       0.24480   0.66295   0.60577   0.12934
H          H       0.18816   0.51583   0.63915   0.12370
H          H       0.37628   0.26862   0.84131   0.12048
H          H       0.37969   0.33142   0.05271   0.11716
H          H       0.14940   0.38319   0.00487   0.11834
H          H       0.48708   0.60583   0.66288   0.13041
H          H       0.65704   0.63904   0.51537   0.12304
H          H       0.51450   0.84174   0.26903   0.12043
H          H       0.23570   0.05234   0.33115   0.11788
H          H       0.46152   0.00501   0.38354   0.11894
C          C       0.71050   0.16288   0.12989   0.00189
C          C       0.68263   0.17942   0.05593   0.01589
C          C       0.64697   0.29009   0.10218   0.24516
C          C       0.85363   0.28599   0.76984   0.00861
C          C       0.90859   0.37102   0.90302   0.24549
C          C       0.86377   0.49535   0.85800  -0.00408
C          C       0.74890   0.47159   0.88300   0.00610
C          C       0.99683   0.12988   0.16274   0.00355
C          C       0.08195   0.05595   0.17949   0.01259
C          C       0.96016   0.10250   0.29013   0.25124
C          C       0.09050   0.76973   0.28601   0.00707
C          C       0.81693   0.90342   0.37084   0.24468
C          C       0.78291   0.85799   0.49519  -0.00442
C          C       0.89629   0.88324   0.47135   0.00581
C          C       0.78896   0.37008   0.33722   0.00335
C          C       0.81729   0.44380   0.32050   0.01328
C          C       0.85246   0.39747   0.20985   0.24728
C          C       0.64603   0.73028   0.21409   0.00764
C          C       0.59124   0.59656   0.12909   0.24114
C          C       0.63647   0.64179   0.00475  -0.00454
C          C       0.75119   0.61669   0.02873   0.00912
C          C       0.50314   0.33721   0.37013   0.00053
C          C       0.41791   0.32056   0.44408   0.01626
C          C       0.53930   0.20998   0.39743   0.24577
C          C       0.40918   0.21387   0.73019   0.00985
C          C       0.68279   0.12923   0.59662   0.24214
C          C       0.71735   0.00497   0.64188  -0.00601
C          C       0.60398   0.02870   0.61655   0.00875
C          C       0.28950   0.83712   0.87010   0.00201
C          C       0.31736   0.82058   0.94406   0.01563
C          C       0.35302   0.70991   0.89781   0.24532
C          C       0.14636   0.71401   0.23016   0.00873
C          C       0.09140   0.62898   0.09698   0.24543
C          C       0.13623   0.50465   0.14200  -0.00416
C          C       0.25109   0.52842   0.11700   0.00582
C          C       0.00316   0.87012   0.83726   0.00349
C          C       0.91804   0.94405   0.82051   0.01254
C          C       0.03983   0.89750   0.70987   0.25122
C          C       0.90950   0.23027   0.71400   0.00703
C          C       0.18306   0.09658   0.62915   0.24451
C          C       0.21708   0.14201   0.50481  -0.00448
C          C       0.10370   0.11676   0.52865   0.00623
C          C       0.21103   0.62992   0.66277   0.00340
C          C       0.18270   0.55620   0.67950   0.01335
C          C       0.14753   0.60253   0.79015   0.24721
C          C       0.35396   0.26972   0.78590   0.00730
C          C       0.40875   0.40344   0.87091   0.24094
C          C       0.36352   0.35822   0.99525  -0.00453
C          C       0.24880   0.38331   0.97127   0.00897
C          C       0.49685   0.66279   0.62987   0.00034
C          C       0.58208   0.67944   0.55591   0.01616
C          C       0.46069   0.79002   0.60256   0.24577
C          C       0.59081   0.78613   0.26980   0.00992
C          C       0.31720   0.87077   0.40338   0.24239
C          C       0.28265   0.99503   0.35812  -0.00601
C          C       0.39601   0.97130   0.38345   0.00875
C          C       0.75702   0.19270   0.80747   0.24758
C          C       0.24297   0.80730   0.19254   0.24767
C          C       0.74318   0.69251   0.30730   0.24455
C          C       0.25681   0.30748   0.69269   0.24460
N          N       0.68818   0.23366   0.15844  -0.31382
N          N       0.64272   0.26031   0.03858  -0.31918
N          N       0.60376   0.37285   0.11165   0.47290
N          N       0.75730   0.26164   0.82934  -0.31468
N          N       0.77827   0.39235   0.91085  -0.31298
N          N       0.96457   0.43129   0.87093  -0.31686
N          N       0.98094   0.29328   0.92753   0.47629
N          N       0.91944   0.15864   0.23349  -0.31441
N          N       0.05789   0.03877   0.26048  -0.31812
N          N       0.91100   0.11244   0.37289   0.45590
N          N       0.15166   0.82912   0.26154  -0.31264
N          N       0.91809   0.91137   0.39207  -0.31262
N          N       0.73317   0.87105   0.43120  -0.31620
N          N       0.79721   0.92773   0.29313   0.47666
N          N       0.81089   0.34151   0.26645  -0.31501
N          N       0.85725   0.46097   0.23951  -0.31848
N          N       0.89619   0.38737   0.12715   0.47215
N          N       0.74225   0.67067   0.23845  -0.31224
N          N       0.72164   0.58864   0.10801  -0.31205
N          N       0.53560   0.62877   0.06865  -0.31593
N          N       0.51795   0.57248   0.20680   0.47686
N          N       0.58032   0.26649   0.34133  -0.31379
N          N       0.44162   0.23966   0.46120  -0.32031
N          N       0.58801   0.12732   0.38730   0.47582
N          N       0.34760   0.23836   0.67089  -0.31222
N          N       0.58187   0.10791   0.58850  -0.31361
N          N       0.76678   0.06899   0.62899  -0.31511
N          N       0.70168   0.20700   0.57252   0.47795
N          N       0.31181   0.76633   0.84156  -0.31361
N          N       0.35727   0.73969   0.96142  -0.31956
N          N       0.39623   0.62715   0.88835   0.47284
N          N       0.24269   0.73837   0.17066  -0.31471
N          N       0.22172   0.60765   0.08915  -0.31302
N          N       0.03542   0.56871   0.12907  -0.31645
N          N       0.01905   0.70672   0.07247   0.47647
N          N       0.08056   0.84136   0.76650  -0.31449
N          N       0.94210   0.96123   0.73952  -0.31779
N          N       0.08899   0.88757   0.62711   0.45589
N          N       0.84833   0.17088   0.73846  -0.31241
N          N       0.08190   0.08863   0.60794  -0.31247
N          N       0.26682   0.12894   0.56880  -0.31647
N          N       0.20279   0.07227   0.70686   0.47696
N          N       0.18910   0.65849   0.73354  -0.31510
N          N       0.14274   0.53903   0.76049  -0.31829
N          N       0.10380   0.61263   0.87285   0.47217
N          N       0.25775   0.32933   0.76155  -0.31213
N          N       0.27834   0.41136   0.89198  -0.31153
N          N       0.46439   0.37123   0.93135  -0.31607
N          N       0.48204   0.42752   0.79320   0.47678
N          N       0.41967   0.73351   0.65867  -0.31370
N          N       0.55837   0.76034   0.53880  -0.32037
N          N       0.41198   0.87268   0.61270   0.47589
N          N       0.65239   0.76164   0.32911  -0.31257
N          N       0.41812   0.89209   0.41149  -0.31397
N          N       0.23321   0.93101   0.37101  -0.31490
N          N       0.29831   0.79300   0.42748   0.47789
N          N       0.66207   0.15105   0.84894   0.47197
N          N       0.33792   0.84895   0.15106   0.47228
N          N       0.83822   0.65046   0.34879   0.47306
N          N       0.16177   0.34954   0.65121   0.47269
O          O       0.60621   0.39392   0.17462  -0.35397
O          O       0.56313   0.42045   0.05729  -0.32888
O          O       0.92333   0.23962   0.95070  -0.34532
O          O       0.57699   0.17863   0.90988  -0.35213
O          O       0.09770   0.28389   0.92467  -0.34618
O          O       0.82401   0.17532   0.39379  -0.34855
O          O       0.95875   0.05859   0.42070  -0.32317
O          O       0.88502   0.95073   0.23901  -0.34458
O          O       0.33302   0.91018   0.17853  -0.35336
O          O       0.69244   0.92480   0.28418  -0.34587
O          O       0.89112   0.32507   0.10627  -0.35447
O          O       0.93990   0.44047   0.07937  -0.32793
O          O       0.57489   0.54949   0.26083  -0.34528
O          O       0.92086   0.58852   0.32169  -0.35332
O          O       0.40115   0.57553   0.21594  -0.34541
O          O       0.67560   0.10638   0.32462  -0.35528
O          O       0.53917   0.07963   0.44069  -0.33055
O          O       0.61342   0.26088   0.54957  -0.34465
O          O       0.16410   0.32178   0.59072  -0.35211
O          O       0.80617   0.21618   0.57557  -0.34733
O          O       0.39378   0.60608   0.82538  -0.35366
O          O       0.43686   0.57955   0.94271  -0.32916
O          O       0.07665   0.76038   0.04930  -0.34560
O          O       0.42300   0.82137   0.09012  -0.35228
O          O       0.90229   0.71611   0.07533  -0.34595
O          O       0.17598   0.82468   0.60621  -0.34858
O          O       0.04124   0.94141   0.57930  -0.32286
O          O       0.11498   0.04927   0.76099  -0.34445
O          O       0.66697   0.08982   0.82147  -0.35297
O          O       0.30755   0.07520   0.71582  -0.34657
O          O       0.10887   0.67493   0.89373  -0.35469
O          O       0.06009   0.55953   0.92062  -0.32786
O          O       0.42510   0.45051   0.73917  -0.34490
O          O       0.07913   0.41148   0.67830  -0.35312
O          O       0.59884   0.42447   0.78406  -0.34574
O          O       0.32439   0.89362   0.67537  -0.35528
O          O       0.46082   0.92037   0.55930  -0.33075
O          O       0.38657   0.73912   0.45042  -0.34489
O          O       0.83589   0.67822   0.40928  -0.35256
O          O       0.19382   0.78382   0.42443  -0.34691

