data_crystal

_audit_creation_method 'AiiDA-DDEC plugin'

_cell_length_a        12.55402
_cell_length_b        21.53217
_cell_length_c        21.53221

_cell_angle_alpha     115.72345
_cell_angle_beta     101.89395
_cell_angle_gamma     101.89397

_symmetry_space_group_name_Hall 'P 1'
_symmetry_space_group_name_H-M  'P 1'

loop_
_symmetry_equiv_pos_as_xyz
 'x,y,z'

loop_
_atom_site_label
_atom_site_type_symbol
_atom_site_fract_x
_atom_site_fract_y
_atom_site_fract_z
_atom_site_charge
Eu         Eu      0.32285   0.64361   0.32256   1.75193
Eu         Eu      0.00001   0.67965   0.32034   1.75227
Eu         Eu      0.67716   0.67744   0.35639   1.75190
H          H       0.67451   0.60640   0.52915   0.11499
H          H       0.67561   0.53800   0.59808   0.11111
H          H       0.43826   0.24831   0.54772   0.13275
H          H       0.26660   0.00644   0.45100   0.10924
H          H       0.20310   0.86959   0.38205   0.12639
H          H       0.43908   0.87191   0.55789   0.12831
H          H       0.49265   0.00801   0.63315   0.11696
H          H       0.14299   0.47254   0.07928   0.11522
H          H       0.07506   0.40445   0.94258   0.11184
H          H       0.89008   0.45281   0.70046   0.13228
H          H       0.81623   0.54723   0.55443   0.10740
H          H       0.82018   0.61645   0.48595   0.12732
H          H       0.88016   0.44511   0.31490   0.12876
H          H       0.85919   0.36923   0.37618   0.11653
H          H       0.06690   0.92388   0.39485   0.11274
H          H       0.13744   0.06078   0.46314   0.11145
H          H       0.18943   0.29868   0.75166   0.13154
H          H       0.26011   0.44364   0.99297   0.10841
H          H       0.33303   0.51220   0.12999   0.12793
H          H       0.56736   0.68750   0.13054   0.12793
H          H       0.48510   0.62547   0.99382   0.11665
H          H       0.85702   0.92072   0.52746   0.11499
H          H       0.92496   0.05742   0.59555   0.11140
H          H       0.10994   0.29953   0.54718   0.13238
H          H       0.18378   0.44557   0.45277   0.10758
H          H       0.17984   0.51404   0.38355   0.12760
H          H       0.11985   0.68509   0.55488   0.12849
H          H       0.14082   0.62381   0.63077   0.11626
H          H       0.93311   0.60515   0.07611   0.11243
H          H       0.86257   0.53686   0.93922   0.11116
H          H       0.81058   0.24834   0.70131   0.13143
H          H       0.73990   0.00703   0.55635   0.10835
H          H       0.66698   0.87001   0.48780   0.12806
H          H       0.43265   0.86945   0.31250   0.12790
H          H       0.51491   0.00617   0.37453   0.11662
H          H       0.32550   0.47084   0.39360   0.11484
H          H       0.32440   0.40191   0.46200   0.11095
H          H       0.56175   0.45228   0.75169   0.13259
H          H       0.73341   0.54899   0.99356   0.10946
H          H       0.79691   0.61795   0.13040   0.12640
H          H       0.56093   0.44210   0.12809   0.12812
H          H       0.50736   0.36684   0.99199   0.11706
H          H       0.50001   0.24757   0.75243   0.12993
H          H       0.74845   0.24808   0.49608   0.13119
H          H       0.25157   0.50392   0.75192   0.13100
C          C       0.59839   0.56175   0.51531  -0.09215
C          C       0.59874   0.52394   0.55376  -0.13758
C          C       0.46548   0.27706   0.60722  -0.16502
C          C       0.46778   0.23810   0.64578   0.14057
C          C       0.43846   0.16065   0.60986  -0.09695
C          C       0.41651   0.09466   0.58376  -0.07747
C          C       0.38527   0.01732   0.54618   0.13270
C          C       0.30302   0.97705   0.47476  -0.12725
C          C       0.26880   0.90148   0.43606  -0.08897
C          C       0.31883   0.86404   0.46612  -0.00995
C          C       0.40109   0.90303   0.53682  -0.08847
C          C       0.43156   0.97868   0.57763  -0.13046
C          C       0.28633   0.78303   0.42017   0.59075
C          C       0.08132   0.48592   0.04797  -0.09420
C          C       0.04305   0.44789   0.97188  -0.13741
C          C       0.85802   0.39323   0.67041  -0.16420
C          C       0.82230   0.35473   0.59316   0.14301
C          C       0.82916   0.39094   0.55178  -0.09782
C          C       0.83344   0.41694   0.51135  -0.07339
C          C       0.83929   0.45436   0.47133   0.13075
C          C       0.82821   0.52464   0.50159  -0.12459
C          C       0.83184   0.56331   0.46438  -0.09162
C          C       0.85129   0.53435   0.39731  -0.00061
C          C       0.86301   0.46475   0.36653  -0.08946
C          C       0.85348   0.42390   0.40171  -0.12737
C          C       0.86391   0.57989   0.36118   0.59105
C          C       0.03633   0.95378   0.43880  -0.08934
C          C       0.07495   0.02988   0.47640  -0.13770
C          C       0.18757   0.32930   0.72258  -0.16022
C          C       0.22868   0.40665   0.76175   0.14103
C          C       0.27693   0.44788   0.83949  -0.09714
C          C       0.32138   0.48812   0.90567  -0.07726
C          C       0.36763   0.52851   0.98322   0.13486
C          C       0.32570   0.49735   0.02302  -0.12877
C          C       0.36676   0.53470   0.09874  -0.08842
C          C       0.45403   0.60307   0.13712  -0.00602
C          C       0.49769   0.63482   0.09865  -0.08728
C          C       0.45282   0.59920   0.02264  -0.13157
C          C       0.50332   0.63901   0.21855   0.58735
C          C       0.91869   0.95203   0.51408  -0.09437
C          C       0.95697   0.02811   0.55211  -0.13721
C          C       0.14199   0.32959   0.60677  -0.16415
C          C       0.17771   0.40683   0.64527   0.14331
C          C       0.17085   0.44822   0.60905  -0.09807
C          C       0.16658   0.48864   0.58306  -0.07320
C          C       0.16072   0.52867   0.54564   0.13059
C          C       0.17180   0.49841   0.47536  -0.12429
C          C       0.16817   0.53561   0.43669  -0.09182
C          C       0.14872   0.60269   0.46565  -0.00031
C          C       0.13700   0.63347   0.53525  -0.08971
C          C       0.14653   0.59828   0.57610  -0.12727
C          C       0.13610   0.63882   0.42011   0.59100
C          C       0.96368   0.56120   0.04621  -0.08957
C          C       0.92506   0.52360   0.97012  -0.13767
C          C       0.81244   0.27741   0.67070  -0.16019
C          C       0.77133   0.23824   0.59335   0.14117
C          C       0.72308   0.16051   0.55211  -0.09752
C          C       0.67863   0.09433   0.51188  -0.07687
C          C       0.63238   0.01677   0.47148   0.13486
C          C       0.67431   0.97698   0.50264  -0.12870
C          C       0.63325   0.90125   0.46530  -0.08844
C          C       0.54598   0.86288   0.39693  -0.00588
C          C       0.50232   0.90134   0.36517  -0.08714
C          C       0.54718   0.97735   0.40079  -0.13188
C          C       0.49668   0.78144   0.36099   0.58715
C          C       0.40162   0.48469   0.43825  -0.09209
C          C       0.40127   0.44624   0.47606  -0.13762
C          C       0.53453   0.39278   0.72293  -0.16506
C          C       0.53223   0.35422   0.76190   0.14048
C          C       0.56155   0.39014   0.83934  -0.09692
C          C       0.58350   0.41624   0.90533  -0.07742
C          C       0.61474   0.45381   0.98268   0.13284
C          C       0.69699   0.52524   0.02295  -0.12743
C          C       0.73121   0.56394   0.09851  -0.08878
C          C       0.68118   0.53387   0.13596  -0.00993
C          C       0.59892   0.46318   0.09697  -0.08846
C          C       0.56845   0.42237   0.02132  -0.13062
C          C       0.71368   0.57983   0.21696   0.59084
C          C       0.50000   0.58392   0.41607   0.63032
C          C       0.50001   0.54274   0.45726  -0.02417
C          C       0.50001   0.46534   0.53465   0.13527
C          C       0.50001   0.42657   0.57343  -0.08628
C          C       0.50001   0.39307   0.60692  -0.11146
C          C       0.50001   0.35421   0.64579   0.14352
C          C       0.50001   0.27734   0.72266  -0.16634
C          C       0.08358   0.58395   0.16864   0.62861
C          C       0.04216   0.54302   0.08623  -0.02329
C          C       0.96419   0.46610   0.93143   0.13081
C          C       0.92541   0.42722   0.85378  -0.07975
C          C       0.89256   0.39371   0.78710  -0.11467
C          C       0.85433   0.35474   0.70934   0.14328
C          C       0.77805   0.27760   0.55546  -0.16916
C          C       0.91643   0.83136   0.41604   0.62833
C          C       0.95785   0.91376   0.45697  -0.02322
C          C       0.03582   0.06857   0.53390   0.13060
C          C       0.07460   0.14622   0.57278  -0.07965
C          C       0.10746   0.21290   0.60629  -0.11474
C          C       0.14568   0.29066   0.64526   0.14322
C          C       0.22196   0.44453   0.72240  -0.16930
O          O       0.40244   0.58102   0.38081  -0.64195
O          O       0.20065   0.75014   0.35976  -0.68162
O          O       0.35005   0.75166   0.43977  -0.57516
O          O       0.02221   0.61870   0.20009  -0.63712
O          O       0.83969   0.63939   0.38787  -0.67993
O          O       0.90693   0.56075   0.31024  -0.57686
O          O       0.82231   0.79821   0.41876  -0.63714
O          O       0.45269   0.61144   0.25164  -0.68410
O          O       0.59843   0.69156   0.25087  -0.57490
O          O       0.97780   0.79991   0.38130  -0.63649
O          O       0.16032   0.61213   0.36061  -0.67949
O          O       0.09308   0.68976   0.43925  -0.57756
O          O       0.17770   0.58124   0.20178  -0.63682
O          O       0.54732   0.74836   0.38856  -0.68387
O          O       0.40158   0.74913   0.30843  -0.57510
O          O       0.59757   0.61918   0.41898  -0.64162
O          O       0.79936   0.64024   0.24985  -0.68175
O          O       0.64996   0.56023   0.24833  -0.57555

