data_crystal

_audit_creation_method 'AiiDA-DDEC plugin'

_cell_length_a         9.31454
_cell_length_b        15.44190
_cell_length_c        21.09697

_cell_angle_alpha     89.87691
_cell_angle_beta     90.11091
_cell_angle_gamma     96.42955

_symmetry_space_group_name_Hall 'P 1'
_symmetry_space_group_name_H-M  'P 1'

loop_
_symmetry_equiv_pos_as_xyz
 'x,y,z'

loop_
_atom_site_label
_atom_site_type_symbol
_atom_site_fract_x
_atom_site_fract_y
_atom_site_fract_z
_atom_site_charge
Cd         Cd      0.31512   0.60595   0.18698   0.83076
Cd         Cd      0.14817   0.92269   0.97873   0.95914
Cd         Cd      0.18564   0.89466   0.68739   0.82862
Cd         Cd      0.35135   0.57757   0.47851   0.95982
Cd         Cd      0.68488   0.39405   0.81303   0.83077
Cd         Cd      0.85184   0.07731   0.02127   0.95914
Cd         Cd      0.81436   0.10534   0.31261   0.82868
Cd         Cd      0.64865   0.42243   0.52149   0.95986
H          H       0.11111   0.71893   0.76743   0.11190
H          H       0.88188   0.93167   0.74721   0.10198
H          H       0.28211   0.67629   0.04774   0.10456
H          H       0.41622   0.69484   0.94465   0.12615
H          H       0.73822   0.54684   0.02522   0.12922
H          H       0.58745   0.53094   0.12379   0.10421
H          H       0.77396   0.60315   0.92012   0.10454
H          H       0.61673   0.61421   0.87557   0.12040
H          H       0.78405   0.76312   0.95240   0.12077
H          H       0.62843   0.77260   0.90754   0.10012
H          H       0.71103   0.87938   0.83368   0.13222
H          H       0.95325   0.65849   0.85619   0.12786
H          H       0.75702   0.81914   0.23896   0.07769
H          H       0.01947   0.82602   0.24989   0.10663
H          H       0.04717   0.88333   0.17814   0.10804
H          H       0.87626   0.70322   0.19243   0.08704
H          H       0.87841   0.69521   0.07777   0.10072
H          H       0.69265   0.80111   0.06151   0.10271
H          H       0.67177   0.73973   0.13237   0.08865
H          H       0.62797   0.88298   0.15950   0.11227
H          H       0.38933   0.78163   0.26758   0.11124
H          H       0.61902   0.56929   0.24743   0.10254
H          H       0.21933   0.82454   0.54872   0.10429
H          H       0.08467   0.80558   0.44557   0.12621
H          H       0.76235   0.95307   0.52540   0.12951
H          H       0.91370   0.96933   0.62406   0.10460
H          H       0.72560   0.89631   0.42095   0.10169
H          H       0.88273   0.88698   0.37618   0.12122
H          H       0.71867   0.73611   0.45241   0.12098
H          H       0.87424   0.72829   0.40727   0.10099
H          H       0.79080   0.62142   0.33371   0.13374
H          H       0.54800   0.84183   0.35629   0.12588
H          H       0.74270   0.68087   0.73868   0.07812
H          H       0.47895   0.67148   0.74909   0.10565
H          H       0.45391   0.61512   0.67683   0.10848
H          H       0.62317   0.79523   0.69245   0.08639
H          H       0.61952   0.80465   0.57748   0.10210
H          H       0.80615   0.69945   0.56113   0.10122
H          H       0.82729   0.76066   0.63191   0.08925
H          H       0.87237   0.61734   0.65925   0.11126
H          H       0.88890   0.28107   0.23257   0.11192
H          H       0.11813   0.06833   0.25279   0.10210
H          H       0.71789   0.32371   0.95226   0.10466
H          H       0.58378   0.30516   0.05535   0.12621
H          H       0.26178   0.45316   0.97478   0.12924
H          H       0.41255   0.46906   0.87621   0.10415
H          H       0.22604   0.39685   0.07988   0.10447
H          H       0.38327   0.38579   0.12443   0.12048
H          H       0.21595   0.23688   0.04760   0.12070
H          H       0.37157   0.22740   0.09246   0.10018
H          H       0.28897   0.12063   0.16632   0.13224
H          H       0.04675   0.34151   0.14381   0.12777
H          H       0.24299   0.18086   0.76104   0.07774
H          H       0.98053   0.17398   0.75011   0.10653
H          H       0.95283   0.11667   0.82186   0.10803
H          H       0.12374   0.29678   0.80758   0.08712
H          H       0.12159   0.30479   0.92223   0.10078
H          H       0.30736   0.19889   0.93849   0.10278
H          H       0.32824   0.26027   0.86763   0.08861
H          H       0.37203   0.11702   0.84050   0.11235
H          H       0.61067   0.21837   0.73242   0.11132
H          H       0.38098   0.43071   0.75258   0.10254
H          H       0.78067   0.17546   0.45128   0.10426
H          H       0.91533   0.19442   0.55443   0.12626
H          H       0.23765   0.04693   0.47460   0.12956
H          H       0.08630   0.03067   0.37594   0.10459
H          H       0.27441   0.10370   0.57905   0.10178
H          H       0.11727   0.11303   0.62382   0.12125
H          H       0.28133   0.26389   0.54760   0.12091
H          H       0.12576   0.27171   0.59273   0.10092
H          H       0.20920   0.37858   0.66629   0.13365
H          H       0.45201   0.15817   0.64371   0.12588
H          H       0.25730   0.31913   0.26132   0.07804
H          H       0.52105   0.32852   0.25091   0.10559
H          H       0.54610   0.38488   0.32317   0.10853
H          H       0.37684   0.20477   0.30755   0.08630
H          H       0.38048   0.19535   0.42252   0.10213
H          H       0.19385   0.30055   0.43887   0.10132
H          H       0.17271   0.23934   0.36809   0.08914
H          H       0.12763   0.38266   0.34075   0.11110
C          C       0.02054   0.75182   0.78381   0.08728
C          C       0.89114   0.87044   0.77172   0.09179
C          C       0.38348   0.64868   0.04014   0.08597
C          C       0.45915   0.65875   0.98341  -0.19317
C          C       0.59090   0.62360   0.97658   0.17314
C          C       0.63805   0.57680   0.02805  -0.19301
C          C       0.55566   0.56804   0.08315   0.08617
C          C       0.67928   0.63940   0.91729  -0.21471
C          C       0.72505   0.73796   0.90971  -0.20459
C          C       0.81865   0.76491   0.85359   0.17483
C          C       0.79816   0.84148   0.82063  -0.18364
C          C       0.93248   0.71932   0.83364  -0.19949
C          C       0.83124   0.95079   0.25040   0.57552
C          C       0.82469   0.86819   0.21067  -0.11302
C          C       0.97251   0.83491   0.20306  -0.20045
C          C       0.95681   0.74864   0.16697  -0.10535
C          C       0.09130   0.70098   0.16759   0.58358
C          C       0.89170   0.75966   0.10085  -0.11199
C          C       0.74135   0.79149   0.10793  -0.18897
C          C       0.74095   0.87556   0.14811  -0.10874
C          C       0.98942   0.81668   0.05582   0.58366
C          C       0.79234   0.95540   0.10836   0.59235
C          C       0.48007   0.74873   0.28400   0.08506
C          C       0.60976   0.63036   0.27192   0.09166
C          C       0.11771   0.85187   0.54089   0.08485
C          C       0.04173   0.84162   0.48417  -0.19432
C          C       0.90976   0.87655   0.47715   0.17528
C          C       0.86268   0.92329   0.52843  -0.19484
C          C       0.94532   0.93225   0.58354   0.08829
C          C       0.82106   0.86083   0.41786  -0.21316
C          C       0.77694   0.76224   0.40981  -0.20608
C          C       0.68284   0.73556   0.35371   0.17247
C          C       0.70326   0.65921   0.32075  -0.18466
C          C       0.56864   0.78110   0.33378  -0.19525
C          C       0.67114   0.54861   0.75037   0.57071
C          C       0.67586   0.63133   0.71049  -0.11261
C          C       0.52708   0.66353   0.70248  -0.19892
C          C       0.54237   0.75031   0.66678  -0.10459
C          C       0.40860   0.79869   0.66753   0.58256
C          C       0.60707   0.74011   0.60064  -0.11396
C          C       0.75784   0.70869   0.60759  -0.18839
C          C       0.75925   0.62450   0.64790  -0.10587
C          C       0.50815   0.68326   0.55604   0.58296
C          C       0.70692   0.54471   0.60836   0.59020
C          C       0.97946   0.24818   0.21620   0.08713
C          C       0.10886   0.12956   0.22828   0.09166
C          C       0.61652   0.35132   0.95987   0.08596
C          C       0.54085   0.34125   0.01659  -0.19309
C          C       0.40911   0.37640   0.02342   0.17324
C          C       0.36195   0.42320   0.97195  -0.19320
C          C       0.44434   0.43196   0.91686   0.08621
C          C       0.32072   0.36060   0.08271  -0.21473
C          C       0.27495   0.26204   0.09029  -0.20458
C          C       0.18135   0.23509   0.14642   0.17477
C          C       0.20185   0.15852   0.17937  -0.18355
C          C       0.06752   0.28068   0.16636  -0.19940
C          C       0.16876   0.04921   0.74961   0.57559
C          C       0.17531   0.13181   0.78933  -0.11313
C          C       0.02749   0.16509   0.79694  -0.20040
C          C       0.04319   0.25136   0.83303  -0.10541
C          C       0.90870   0.29902   0.83241   0.58357
C          C       0.10830   0.24034   0.89915  -0.11203
C          C       0.25865   0.20851   0.89207  -0.18887
C          C       0.25906   0.12444   0.85189  -0.10886
C          C       0.01058   0.18332   0.94418   0.58363
C          C       0.20766   0.04460   0.89164   0.59247
C          C       0.51993   0.25127   0.71600   0.08489
C          C       0.39025   0.36964   0.72808   0.09162
C          C       0.88229   0.14813   0.45911   0.08474
C          C       0.95827   0.15838   0.51584  -0.19423
C          C       0.09025   0.12345   0.52286   0.17534
C          C       0.13732   0.07671   0.47157  -0.19477
C          C       0.05469   0.06775   0.41646   0.08819
C          C       0.17895   0.13917   0.58214  -0.21329
C          C       0.22306   0.23776   0.59019  -0.20603
C          C       0.31716   0.26444   0.64629   0.17249
C          C       0.29674   0.34079   0.67925  -0.18458
C          C       0.43137   0.21890   0.66622  -0.19523
C          C       0.32886   0.45139   0.24964   0.57089
C          C       0.32414   0.36867   0.28951  -0.11276
C          C       0.47292   0.33647   0.29753  -0.19882
C          C       0.45764   0.24969   0.33322  -0.10460
C          C       0.59140   0.20131   0.33247   0.58249
C          C       0.39293   0.25989   0.39936  -0.11395
C          C       0.24216   0.29131   0.39241  -0.18848
C          C       0.24075   0.37550   0.35210  -0.10566
C          C       0.49186   0.31674   0.44396   0.58303
C          C       0.29308   0.45529   0.39164   0.59003
N          N       0.00119   0.82657   0.75327  -0.25535
N          N       0.43137   0.60423   0.08964  -0.24541
N          N       0.49922   0.67409   0.25354  -0.25380
N          N       0.06987   0.89630   0.59019  -0.24591
N          N      -0.00119   0.17343   0.24673  -0.25524
N          N       0.56864   0.39577   0.91037  -0.24552
N          N       0.50078   0.32591   0.74646  -0.25357
N          N       0.93013   0.10370   0.40981  -0.24602
O          O       0.09875   0.63723   0.12985  -0.59047
O          O       0.18732   0.72298   0.20969  -0.56249
O          O       0.12698   0.82676   0.06272  -0.52633
O          O       0.92940   0.85319   0.00949  -0.55622
O          O       0.91810   0.99543   0.11349  -0.55033
O          O       0.70038   0.97859   0.06679  -0.54814
O          O       0.93529   0.96894   0.28906  -0.58034
O          O       0.72694   0.99775   0.24444  -0.55854
O          O       0.40043   0.86120   0.62860  -0.59012
O          O       0.31461   0.77893   0.71090  -0.56093
O          O       0.37160   0.67084   0.56479  -0.52407
O          O       0.56554   0.64929   0.50796  -0.55729
O          O       0.57966   0.50664   0.61230  -0.54979
O          O       0.79974   0.51956   0.56813  -0.54784
O          O       0.56513   0.52897   0.78773  -0.57760
O          O       0.77765   0.50306   0.74596  -0.55900
O          O       0.90126   0.36277   0.87015  -0.59035
O          O       0.81268   0.27702   0.79031  -0.56263
O          O       0.87303   0.17324   0.93728  -0.52647
O          O       0.07060   0.14681   0.99051  -0.55606
O          O       0.08190   0.00457   0.88651  -0.55049
O          O       0.29962   0.02141   0.93321  -0.54804
O          O       0.06471   0.03106   0.71094  -0.58051
O          O       0.27306   0.00226   0.75557  -0.55843
O          O       0.59957   0.13880   0.37140  -0.59005
O          O       0.68539   0.22107   0.28910  -0.56093
O          O       0.62840   0.32916   0.43521  -0.52406
O          O       0.43447   0.35071   0.49204  -0.55732
O          O       0.42034   0.49336   0.38770  -0.54963
O          O       0.20026   0.48044   0.43187  -0.54780
O          O       0.43488   0.47103   0.21227  -0.57761
O          O       0.22236   0.49695   0.25404  -0.55911

