data_crystal

_audit_creation_method 'AiiDA-DDEC plugin'

_cell_length_a        13.41817
_cell_length_b        13.40847
_cell_length_c        14.45616

_cell_angle_alpha     90.02985
_cell_angle_beta     90.03035
_cell_angle_gamma     120.10413

_symmetry_space_group_name_Hall 'P 1'
_symmetry_space_group_name_H-M  'P 1'

loop_
_symmetry_equiv_pos_as_xyz
 'x,y,z'

loop_
_atom_site_label
_atom_site_type_symbol
_atom_site_fract_x
_atom_site_fract_y
_atom_site_fract_z
_atom_site_charge
Tb         Tb      0.66667   0.33326   0.83116   2.10763
Tb         Tb      0.33290   0.66676   0.66858   2.10729
Tb         Tb      0.33329   0.66668   0.16884   2.10705
Tb         Tb      0.66762   0.33358   0.33180   2.10865
Cu         Cu      0.49990   0.00007   0.00026   0.83133
Cu         Cu      0.00015   0.50013  -0.00018   0.83171
Cu         Cu      0.50004   0.50001   0.00006   0.83165
Cu         Cu      0.00002   0.49994   0.50019   0.83253
Cu         Cu      0.49959  -0.00024   0.49986   0.83007
Cu         Cu      0.49993   0.50016   0.50009   0.83493
H          H       0.03636   0.35885   0.58373   0.25095
H          H       0.91565   0.31161   0.70542   0.13292
H          H       0.79609   0.25945   0.63193   0.13882
H          H       0.86199   0.16751   0.52621   0.11080
H          H       0.97100   0.25865   0.44645   0.12649
H          H       0.64256   0.67863   0.58365   0.25148
H          H       0.68792   0.60356   0.70546   0.13380
H          H       0.74088   0.53715   0.63198   0.13911
H          H       0.83233   0.69284   0.52510   0.11023
H          H       0.74160   0.71222   0.44604   0.12689
H          H       0.32236   0.96335   0.58334   0.25046
H          H       0.39579   0.08424   0.70493   0.13245
H          H       0.46425   0.20388   0.63168   0.13900
H          H       0.30536   0.13744   0.52619   0.10987
H          H       0.28710   0.02834   0.44625   0.12541
H          H       0.35882   0.03635   0.91691   0.25105
H          H       0.31140   0.91597   0.79510   0.13211
H          H       0.25964   0.79608   0.86811   0.13872
H          H       0.16762   0.86185   0.97408   0.11002
H          H       0.25866   0.97103   0.05398   0.12630
H          H       0.67738   0.64183   0.91650   0.25126
H          H       0.60275   0.68755   0.79478   0.13241
H          H       0.53658   0.74089   0.86813   0.13853
H          H       0.69430   0.83277   0.97416   0.11050
H          H       0.71232   0.74168   0.05384   0.12648
H          H       0.96354   0.32245   0.91640   0.25082
H          H       0.08425   0.39619   0.79475   0.13220
H          H       0.20385   0.46389   0.86817   0.13904
H          H       0.13751   0.30545   0.97355   0.10993
H          H       0.02863   0.28727   0.05339   0.12623
H          H       0.96330   0.64068   0.41649   0.25065
H          H       0.08429   0.68815   0.29465   0.13237
H          H       0.20370   0.74036   0.36833   0.13889
H          H       0.13801   0.83228   0.47384   0.11027
H          H       0.02893   0.74149   0.55360   0.12670
H          H       0.35808   0.32212   0.41675   0.25125
H          H       0.31199   0.39621   0.29491   0.13303
H          H       0.25896   0.46285   0.36820   0.13903
H          H       0.16737   0.30564   0.47424   0.11003
H          H       0.25819   0.28724   0.55390   0.12657
H          H       0.67697   0.03640   0.41638   0.25097
H          H       0.60338   0.91561   0.29473   0.13238
H          H       0.53556   0.79596   0.36803   0.13940
H          H       0.69405   0.86232   0.47351   0.11036
H          H       0.71268   0.97177   0.55331   0.12558
H          H       0.64082   0.96366   0.08365   0.25071
H          H       0.68830   0.08428   0.20551   0.13257
H          H       0.73981   0.20395   0.13239   0.13955
H          H       0.83204   0.13828   0.02660   0.11035
H          H       0.74106   0.02891   0.94678   0.12626
H          H       0.32258   0.35820   0.08338   0.25133
H          H       0.39693   0.31216   0.20512   0.13293
H          H       0.46335   0.25903   0.13171   0.13913
H          H       0.30569   0.16720   0.02579   0.11054
H          H       0.28750   0.25820   0.94608   0.12653
H          H       0.03612   0.67724   0.08382   0.25146
H          H       0.91545   0.60271   0.20530   0.13227
H          H       0.79575   0.53574   0.13190   0.13942
H          H       0.86236   0.69446   0.02648   0.11045
H          H       0.97133   0.71263   0.94673   0.12604
C          C       0.87411   0.43885   0.66151   0.65633
C          C       0.88372   0.33229   0.64249  -0.21132
C          C       0.81539   0.26226   0.43213   0.61627
C          C       0.90364   0.25284   0.49304  -0.18182
C          C       0.56164   0.43458   0.66025   0.65789
C          C       0.66787   0.55146   0.64220  -0.21314
C          C       0.73496   0.55126   0.43185   0.61451
C          C       0.74670   0.65014   0.49249  -0.18129
C          C       0.56470   0.12552   0.66147   0.65643
C          C       0.44874   0.11608   0.64219  -0.21219
C          C       0.44632   0.18419   0.43179   0.61671
C          C       0.34889   0.09583   0.49287  -0.18310
C          C       0.43882   0.87433   0.83861   0.65596
C          C       0.33229   0.88383   0.85778  -0.21133
C          C       0.26220   0.81522   0.06819   0.61538
C          C       0.25288   0.90359   0.00736  -0.18282
C          C       0.43387   0.56136   0.83976   0.65803
C          C       0.55066   0.66769   0.85792  -0.21031
C          C       0.55293   0.73776   0.06820   0.61456
C          C       0.65064   0.74740   0.00728  -0.18261
C          C       0.12621   0.56522   0.83868   0.65670
C          C       0.11630   0.44893   0.85769  -0.21115
C          C       0.18465   0.44681   0.06799   0.61547
C          C       0.09611   0.34912   0.00693  -0.18170
C          C       0.12585   0.56103   0.33866   0.65673
C          C       0.11611   0.66749   0.35764  -0.21186
C          C       0.18443   0.73766   0.56798   0.61552
C          C       0.09615   0.74699   0.50703  -0.18272
C          C       0.43807   0.56535   0.33974   0.65862
C          C       0.33198   0.44854   0.35806  -0.21174
C          C       0.26236   0.44711   0.56827   0.61573
C          C       0.25268   0.34912   0.50746  -0.18205
C          C       0.43431   0.87346   0.33861   0.65728
C          C       0.55066   0.88364   0.35759  -0.21265
C          C       0.55354   0.81586   0.56817   0.61631
C          C       0.65072   0.90411   0.50687  -0.18220
C          C       0.56089   0.12590   0.16178   0.65725
C          C       0.66727   0.11618   0.14276  -0.21355
C          C       0.73759   0.18461   0.93211   0.61703
C          C       0.74680   0.09643   0.99328  -0.18314
C          C       0.56591   0.43848   0.16034   0.65771
C          C       0.44916   0.33215   0.14202  -0.21109
C          C       0.44703   0.26224   0.93173   0.61476
C          C       0.34927   0.25258   0.99263  -0.18202
C          C       0.87282   0.43366   0.16033   0.65912
C          C       0.88319   0.55035   0.14216  -0.21222
C          C       0.81537   0.55320   0.93197   0.61532
C          C       0.90377   0.65078   0.99313  -0.18263
N          N       0.95734   0.34670   0.56153  -0.28110
N          N       0.65371   0.61114   0.56146  -0.28248
N          N       0.38934   0.04242   0.56114  -0.27899
N          N       0.34666   0.95726   0.93897  -0.28030
N          N       0.61035   0.65357   0.93873  -0.28098
N          N       0.04265   0.38954   0.93861  -0.28049
N          N       0.04237   0.65303   0.43857  -0.27949
N          N       0.34632   0.38924   0.43896  -0.28088
N          N       0.61004   0.95733   0.43860  -0.28115
N          N       0.65296   0.04276   0.06161  -0.28065
N          N       0.38958   0.34639   0.06119  -0.28145
N          N       0.95709   0.61021   0.06143  -0.28109
O          O       0.81721   0.43850   0.73134  -0.67365
O          O       0.92275   0.52480   0.60653  -0.52933
O          O       0.80914   0.35433   0.43984  -0.68249
O          O       0.75433   0.18218   0.37617  -0.59061
O          O       0.56325   0.37608   0.72821  -0.67560
O          O       0.47475   0.39834   0.60647  -0.52797
O          O       0.64171   0.45398   0.43954  -0.67854
O          O       0.81458   0.56805   0.37619  -0.59635
O          O       0.62128   0.18228   0.73152  -0.67315
O          O       0.60204   0.07714   0.60636  -0.52809
O          O       0.54505   0.19151   0.43966  -0.68306
O          O       0.42594   0.24398   0.37578  -0.59103
O          O       0.43854   0.81761   0.76852  -0.67434
O          O       0.52471   0.92283   0.89369  -0.52827
O          O       0.35392   0.80863   0.06032  -0.67904
O          O       0.18213   0.75439   0.12412  -0.59279
O          O       0.37519   0.56253   0.77167  -0.67547
O          O       0.39790   0.47462   0.89364  -0.52881
O          O       0.45442   0.64583   0.06037  -0.67994
O          O       0.57245   0.81781   0.12430  -0.59200
O          O       0.18348   0.62208   0.76899  -0.67315
O          O       0.07730   0.60234   0.89342  -0.52834
O          O       0.19155   0.54536   0.06023  -0.67976
O          O       0.24517   0.42729   0.12400  -0.59362
O          O       0.18302   0.56160   0.26892  -0.67365
O          O       0.07692   0.47496   0.39348  -0.52949
O          O       0.19099   0.64582   0.56013  -0.67936
O          O       0.24522   0.81775   0.62402  -0.59128
O          O       0.43634   0.62315   0.27132  -0.67614
O          O       0.52493   0.60212   0.39364  -0.52889
O          O       0.35416   0.54566   0.56031  -0.68134
O          O       0.18239   0.42805   0.62422  -0.59259
O          O       0.37828   0.81715   0.26827  -0.67329
O          O       0.39587   0.92043   0.39409  -0.52839
O          O       0.45473   0.80830   0.56043  -0.68064
O          O       0.57425   0.75635   0.62428  -0.59257
O          O       0.56116   0.18255   0.23185  -0.67278
O          O       0.47523   0.07785   0.10638  -0.53004
O          O       0.64599   0.19143   0.93976  -0.67945
O          O       0.81766   0.24491   0.87602  -0.59357
O          O       0.62433   0.43718   0.22850  -0.67436
O          O       0.60207   0.52531   0.10645  -0.52970
O          O       0.54560   0.35415   0.93956  -0.68077
O          O       0.42752   0.18212   0.87572  -0.59168
O          O       0.81341   0.37485   0.22857  -0.67374
O          O       0.92330   0.39782   0.10617  -0.52814
O          O       0.80851   0.45465   0.93969  -0.67907
O          O       0.75495   0.57281   0.87593  -0.59378

