data_crystal

_audit_creation_method 'AiiDA-DDEC plugin'

_cell_length_a        14.41077
_cell_length_b        14.41054
_cell_length_c        16.25386

_cell_angle_alpha     101.88125
_cell_angle_beta     101.92007
_cell_angle_gamma     117.19125

_symmetry_space_group_name_Hall 'P 1'
_symmetry_space_group_name_H-M  'P 1'

loop_
_symmetry_equiv_pos_as_xyz
 'x,y,z'

loop_
_atom_site_label
_atom_site_type_symbol
_atom_site_fract_x
_atom_site_fract_y
_atom_site_fract_z
_atom_site_charge
Zn         Zn      0.56511   0.59248   0.36064   0.83787
Zn         Zn      0.40750   0.43488   0.13940   0.83785
Zn         Zn      0.43488   0.40752   0.63936   0.83776
Zn         Zn      0.59249   0.56512   0.86060   0.83796
H          H       0.62092   0.30984   0.37815   0.11420
H          H       0.72601   0.21142   0.38593   0.13179
H          H       0.99053   0.47425   0.34074   0.12835
H          H       0.88563   0.57223   0.33477   0.11063
H          H       0.92883   0.22591   0.20873   0.12396
H          H       0.10677   0.30244   0.17374   0.11737
H          H       0.29344   0.49256   0.45315   0.11150
H          H       0.11659   0.41713   0.48737   0.12105
H          H       0.49248   0.61400   0.51783   0.09953
H          H       0.57874   0.71168   0.68285   0.13769
H          H       0.89345   0.89167   0.64585   0.12334
H          H       0.79395   0.78460   0.48041   0.09493
H          H       0.74057   0.83996   0.81343   0.09503
H          H       0.07880   0.92338   0.90262   0.12245
H          H       0.83420   0.00846   0.93129   0.12238
H          H       0.69015   0.37910   0.12185   0.11408
H          H       0.78856   0.27400   0.11406   0.13176
H          H       0.52575   0.00945   0.15925   0.12848
H          H       0.42779   0.11436   0.16524   0.11056
H          H       0.77405   0.07112   0.29126   0.12374
H          H       0.69752   0.89318   0.32627   0.11737
H          H       0.50745   0.70658   0.04684   0.11172
H          H       0.58287   0.88345   0.01260   0.12115
H          H       0.38595   0.50748   0.98212   0.09928
H          H       0.28830   0.42124   0.81709   0.13772
H          H       0.10834   0.10655   0.85417   0.12349
H          H       0.21539   0.20603   0.01962   0.09490
H          H       0.16002   0.25940   0.68652   0.09495
H          H       0.07667   0.92121   0.59745   0.12273
H          H       0.99152   0.16576   0.56861   0.12234
H          H       0.37907   0.69016   0.62185   0.11401
H          H       0.27398   0.78858   0.61407   0.13177
H          H       0.00946   0.52575   0.65926   0.12849
H          H       0.11436   0.42777   0.66523   0.11047
H          H       0.07116   0.77409   0.79127   0.12374
H          H       0.89322   0.69756   0.82626   0.11738
H          H       0.70655   0.50744   0.54685   0.11170
H          H       0.88340   0.58287   0.51263   0.12109
H          H       0.50751   0.38600   0.48217   0.09933
H          H       0.42125   0.28832   0.31714   0.13755
H          H       0.10654   0.10833   0.35415   0.12355
H          H       0.20604   0.21540   0.51959   0.09514
H          H       0.25942   0.16004   0.18657   0.09478
H          H       0.92119   0.07662   0.09738   0.12272
H          H       0.16579   0.99154   0.06870   0.12205
H          H       0.30984   0.62090   0.87815   0.11411
H          H       0.21143   0.72600   0.88594   0.13191
H          H       0.47424   0.99055   0.84075   0.12847
H          H       0.57220   0.88564   0.83476   0.11038
H          H       0.22594   0.92888   0.70874   0.12373
H          H       0.30247   0.10682   0.67373   0.11744
H          H       0.49254   0.29342   0.95316   0.11164
H          H       0.41712   0.11655   0.98740   0.12108
H          H       0.61404   0.49252   0.01788   0.09941
H          H       0.71169   0.57876   0.18291   0.13773
H          H       0.89165   0.89345   0.14582   0.12343
H          H       0.78460   0.79397   0.98038   0.09486
H          H       0.83997   0.74060   0.31348   0.09490
H          H       0.92332   0.07879   0.40255   0.12288
H          H       0.00847   0.83424   0.43139   0.12209
C          C       0.74702   0.44750   0.35601  -0.06696
C          C       0.70194   0.34537   0.37038  -0.06669
C          C       0.75996   0.29045   0.37484  -0.21099
C          C       0.86386   0.33708   0.36394   0.27033
C          C       0.91005   0.43864   0.34918  -0.23019
C          C       0.85119   0.49288   0.34550  -0.06683
C          C       0.68908   0.51015   0.35511   0.54871
C          C       0.01514   0.31817   0.34946   0.25226
C          C       0.00958   0.28394   0.26091  -0.20305
C          C       0.10794   0.32680   0.24201  -0.06620
C          C       0.21047   0.40287   0.31107  -0.06521
C          C       0.21384   0.43438   0.39979  -0.06903
C          C       0.11593   0.39193   0.41938  -0.19603
C          C       0.31528   0.44916   0.28972   0.59937
C          C       0.58049   0.67714   0.54852   0.09546
C          C       0.62919   0.73297   0.64052  -0.16622
C          C       0.74397   0.81063   0.67740   0.10731
C          C       0.80444   0.83176   0.61892  -0.15896
C          C       0.74980   0.77315   0.52778   0.08947
C          C       0.79696   0.86061   0.77494   0.06860
C          C       0.94963   0.95921   0.90591   0.19230
C          C       0.04509   0.95733   0.94581  -0.15029
C          C       0.90609   0.00394   0.96154  -0.16342
C          C       0.55250   0.25298   0.14399  -0.06747
C          C       0.65462   0.29807   0.12962  -0.06679
C          C       0.70954   0.24005   0.12515  -0.21101
C          C       0.66291   0.13614   0.13604   0.27042
C          C       0.56136   0.08995   0.15082  -0.23017
C          C       0.50713   0.14880   0.15451  -0.06635
C          C       0.48986   0.31093   0.14490   0.54873
C          C       0.68182   0.98484   0.15051   0.25237
C          C       0.71603   0.99038   0.23908  -0.20305
C          C       0.67317   0.89203   0.25799  -0.06637
C          C       0.59711   0.78951   0.18893  -0.06525
C          C       0.56562   0.78617   0.10019  -0.06906
C          C       0.60806   0.88408   0.08060  -0.19601
C          C       0.55082   0.68470   0.21028   0.59928
C          C       0.32282   0.41948   0.95145   0.09546
C          C       0.26701   0.37078   0.85944  -0.16640
C          C       0.18936   0.25601   0.82258   0.10721
C          C       0.16824   0.19555   0.88109  -0.15899
C          C       0.22683   0.25018   0.97223   0.08962
C          C       0.13939   0.20300   0.72503   0.06862
C          C       0.04081   0.05036   0.59409   0.19237
C          C       0.04270   0.95492   0.55423  -0.15076
C          C       0.99605   0.09387   0.53841  -0.16336
C          C       0.25297   0.55250   0.64398  -0.06274
C          C       0.29805   0.65463   0.62961  -0.06829
C          C       0.24003   0.70955   0.62516  -0.21088
C          C       0.13613   0.66292   0.63605   0.27017
C          C       0.08994   0.56136   0.65082  -0.22990
C          C       0.14880   0.50712   0.65450  -0.06801
C          C       0.31091   0.48985   0.64489   0.54748
C          C       0.98485   0.68183   0.65054   0.25220
C          C       0.99041   0.71605   0.73909  -0.20302
C          C       0.89205   0.67320   0.75799  -0.06631
C          C       0.78952   0.59713   0.68893  -0.06518
C          C       0.78615   0.56562   0.60021  -0.06888
C          C       0.88406   0.60807   0.58062  -0.19612
C          C       0.68471   0.55084   0.71027   0.59923
C          C       0.41950   0.32286   0.45148   0.09524
C          C       0.37080   0.26703   0.35947  -0.16634
C          C       0.25602   0.18937   0.32260   0.10728
C          C       0.19555   0.16824   0.38108  -0.15896
C          C       0.25019   0.22685   0.47222   0.08957
C          C       0.20303   0.13939   0.22506   0.06840
C          C       0.05036   0.04079   0.09409   0.19215
C          C       0.95490   0.04267   0.05419  -0.15025
C          C       0.09389   0.99606   0.03846  -0.16354
C          C       0.44749   0.74702   0.85601  -0.06717
C          C       0.34537   0.70193   0.87038  -0.06700
C          C       0.29045   0.75995   0.87485  -0.21069
C          C       0.33708   0.86386   0.86396   0.26999
C          C       0.43863   0.91005   0.84918  -0.23011
C          C       0.49286   0.85120   0.84549  -0.06663
C          C       0.51013   0.68907   0.85509   0.54893
C          C       0.31817   0.01516   0.84949   0.25228
C          C       0.28396   0.00961   0.76092  -0.20279
C          C       0.32682   0.10797   0.74201  -0.06643
C          C       0.40288   0.21049   0.81107  -0.06542
C          C       0.43437   0.21383   0.89981  -0.06902
C          C       0.39193   0.11592   0.91940  -0.19610
C          C       0.44917   0.31530   0.78972   0.59935
C          C       0.67717   0.58052   0.04855   0.09541
C          C       0.73298   0.62922   0.14056  -0.16637
C          C       0.81063   0.74399   0.17742   0.10705
C          C       0.83175   0.80445   0.11891  -0.15915
C          C       0.77316   0.74982   0.02777   0.08980
C          C       0.86060   0.79700   0.27496   0.06871
C          C       0.95918   0.94964   0.40591   0.19241
C          C       0.95729   0.04508   0.44577  -0.15063
C          C       0.00394   0.90612   0.46159  -0.16344
N          N       0.63935   0.69583   0.49264  -0.22983
N          N       0.90392   0.91734   0.81224  -0.26250
N          N       0.30413   0.36062   0.00735  -0.22975
N          N       0.08270   0.09608   0.68777  -0.26232
N          N       0.36064   0.30417   0.50735  -0.22983
N          N       0.09607   0.08266   0.18776  -0.26200
N          N       0.69586   0.63938   0.99264  -0.22989
N          N       0.91729   0.90392   0.31223  -0.26236
O          O       0.91606   0.27696   0.36847  -0.22600
O          O       0.58914   0.46337   0.35812  -0.56001
O          O       0.73745   0.60807   0.35351  -0.56256
O          O       0.40561   0.52174   0.35424  -0.55039
O          O       0.30527   0.41157   0.20809  -0.54426
O          O       0.72299   0.08391   0.13145  -0.22615
O          O       0.53663   0.41086   0.14189  -0.56027
O          O       0.39194   0.26256   0.14652  -0.56218
O          O       0.47825   0.59438   0.14577  -0.55028
O          O       0.58841   0.69471   0.29193  -0.54408
O          O       0.08393   0.72304   0.63153  -0.22598
O          O       0.41085   0.53663   0.64188  -0.56033
O          O       0.26254   0.39193   0.64649  -0.56251
O          O       0.59438   0.47826   0.64576  -0.55019
O          O       0.69472   0.58843   0.79191  -0.54432
O          O       0.27700   0.91609   0.86854  -0.22546
O          O       0.46336   0.58914   0.85811  -0.56006
O          O       0.60805   0.73744   0.85348  -0.56284
O          O       0.52174   0.40562   0.85423  -0.55048
O          O       0.41158   0.30528   0.70807  -0.54398

