data_crystal

_audit_creation_method 'AiiDA-DDEC plugin'

_cell_length_a        10.79572
_cell_length_b        10.76889
_cell_length_c        30.40562

_cell_angle_alpha     90.05208
_cell_angle_beta     89.96724
_cell_angle_gamma     90.04640

_symmetry_space_group_name_Hall 'P 1'
_symmetry_space_group_name_H-M  'P 1'

loop_
_symmetry_equiv_pos_as_xyz
 'x,y,z'

loop_
_atom_site_label
_atom_site_type_symbol
_atom_site_fract_x
_atom_site_fract_y
_atom_site_fract_z
_atom_site_charge
Ni         Ni      0.30145   0.69476   0.74970   1.06204
Ni         Ni      0.69501   0.30294   0.24986   1.06280
Ni         Ni      0.80283   0.80303  -0.00035   1.06425
Ni         Ni      0.19809   0.19621   0.49987   1.06454
H          H       0.20823   0.99527   0.61598   0.14255
H          H       0.82313   0.96103   0.57901   0.13308
H          H       0.96719   0.74657   0.68698   0.14664
H          H       0.66489   0.68769   0.68191   0.36768
H          H       0.79105   0.00252   0.11592   0.14183
H          H       0.17601   0.03841   0.07906   0.13341
H          H       0.03083   0.25260   0.18708   0.14609
H          H       0.33379   0.31284   0.18195   0.36642
H          H       0.50530   0.71034   0.86596   0.14257
H          H       0.53809   0.32346   0.82892   0.13261
H          H       0.75298   0.46841   0.93648   0.14685
H          H       0.81207   0.16557   0.93134   0.36711
H          H       0.49466   0.29049   0.36578   0.14211
H          H       0.45936   0.67729   0.32905   0.13235
H          H       0.24601   0.53091   0.43672   0.14611
H          H       0.18412   0.83399   0.43143   0.36810
H          H       0.29205   0.49448   0.63413   0.14196
H          H       0.67694   0.45990   0.67129   0.13373
H          H       0.53318   0.24522   0.56333   0.14551
H          H       0.83478   0.18650   0.56815   0.36587
H          H       0.70874   0.50430   0.13322   0.14297
H          H       0.32396   0.53940   0.17072   0.13238
H          H       0.46823   0.75441   0.06293   0.14738
H          H       0.16503   0.81318   0.06853   0.36675
H          H       0.99502   0.21017   0.38395   0.14313
H          H       0.96121   0.82373   0.42059   0.13333
H          H       0.74666   0.96842   0.31296   0.14555
H          H       0.68754   0.66527   0.31812   0.36752
H          H       0.00344   0.79034   0.88417   0.14232
H          H       0.04001   0.17663   0.92085   0.13396
H          H       0.25211   0.03017   0.81270   0.14545
H          H       0.31300   0.33410   0.81801   0.36725
C          C       0.09783   0.86815   0.65454  -0.02675
C          C       0.11716   0.95424   0.62076  -0.07560
C          C       0.01831   0.98843   0.59335  -0.02407
C          C       0.90115   0.93549   0.59977  -0.08995
C          C       0.88340   0.84782   0.63327  -0.04126
C          C       0.98138   0.81388   0.66086  -0.07828
C          C       0.20043   0.83247   0.68483   0.53791
C          C       0.03934   0.08227   0.55778   0.56608
C          C       0.75814   0.79338   0.64122   0.56177
C          C       0.90048   0.12997   0.15499  -0.02758
C          C       0.88176   0.04419   0.12096  -0.07560
C          C       0.98112   0.01088   0.09350  -0.02190
C          C       0.09806   0.06422   0.09986  -0.09243
C          C       0.11528   0.15186   0.13345  -0.04415
C          C       0.01686   0.18480   0.16108  -0.07729
C          C       0.79791   0.16599   0.18549   0.53673
C          C       0.96083   0.91703   0.05774   0.56541
C          C       0.24083   0.20634   0.14127   0.56539
C          C       0.63229   0.59942   0.90413  -0.02800
C          C       0.54608   0.61891   0.87059  -0.07384
C          C       0.51160   0.51948   0.84334  -0.02768
C          C       0.56393   0.40184   0.84962  -0.09038
C          C       0.65158   0.38404   0.88294  -0.04135
C          C       0.68593   0.48245   0.91040  -0.07919
C          C       0.66912   0.70228   0.93426   0.54124
C          C       0.41762   0.53946   0.80798   0.56609
C          C       0.70609   0.25843   0.89051   0.56503
C          C       0.36812   0.40087   0.40457  -0.02719
C          C       0.45329   0.38176   0.37061  -0.07461
C          C       0.48612   0.48144   0.34320  -0.02395
C          C       0.43353   0.59903   0.34976  -0.09248
C          C       0.34606   0.61635   0.38324  -0.03879
C          C       0.31316   0.51740   0.41067  -0.08066
C          C       0.33358   0.29789   0.43504   0.53865
C          C       0.57994   0.46078   0.30757   0.56594
C          C       0.29011   0.74146   0.39078   0.56184
C          C       0.40184   0.36632   0.59558  -0.02891
C          C       0.38288   0.45281   0.62923  -0.07507
C          C       0.48182   0.48639   0.65669  -0.02361
C          C       0.59922   0.43401   0.65044  -0.09440
C          C       0.61702   0.34668   0.61686  -0.03988
C          C       0.51883   0.31280   0.58932  -0.07731
C          C       0.29844   0.32983   0.56556   0.53911
C          C       0.46032   0.58015   0.69222   0.56710
C          C       0.74249   0.29262   0.60919   0.56227
C          C       0.59863   0.63269   0.09505  -0.02885
C          C       0.61778   0.54576   0.12848  -0.07465
C          C       0.51894   0.51146   0.15590  -0.02623
C          C       0.40184   0.56479   0.14987  -0.09088
C          C       0.38379   0.65270   0.11654  -0.04061
C          C       0.48184   0.68687   0.08896  -0.07925
C          C       0.70224   0.66959   0.06511   0.53974
C          C       0.53936   0.41694   0.19118   0.56838
C          C       0.25847   0.70749   0.10914   0.56113
C          C       0.86750   0.10001   0.34543  -0.02598
C          C       0.95397   0.11891   0.37903  -0.07760
C          C       0.98833   0.01931   0.40616  -0.02477
C          C       0.93533   0.90187   0.39985  -0.09083
C          C       0.84751   0.88415   0.36650  -0.04357
C          C       0.81372   0.98285   0.33907  -0.07672
C          C       0.83206   0.20424   0.31553   0.53720
C          C       0.08255   0.03992   0.44150   0.57079
C          C       0.79317   0.75854   0.35864   0.56427
C          C       0.13072   0.89981   0.84516  -0.02844
C          C       0.04482   0.88131   0.87899  -0.07623
C          C       0.01162   0.98108   0.90627  -0.02527
C          C       0.06491   0.09838   0.89994  -0.09120
C          C       0.15261   0.11530   0.86646  -0.04306
C          C       0.18540   0.01639   0.83895  -0.07626
C          C       0.16552   0.79651   0.81487   0.53975
C          C       0.91801   0.96058   0.94185   0.56963
C          C       0.20688   0.24100   0.85861   0.56502
O          O       0.17544   0.73996   0.71126  -0.47361
O          O       0.30260   0.88705   0.68479  -0.37353
O          O       0.15103   0.07940   0.54181  -0.49045
O          O       0.95686   0.15579   0.54492  -0.48275
O          O       0.66658   0.82542   0.61948  -0.37760
O          O       0.75476   0.71148   0.67368  -0.45287
O          O       0.82481   0.25518   0.21320  -0.47157
O          O       0.69397   0.11480   0.18463  -0.37665
O          O       0.84893   0.91949   0.04196  -0.48945
O          O       0.04335   0.84388   0.04468  -0.48311
O          O       0.33220   0.17455   0.11955  -0.37821
O          O       0.24401   0.28846   0.17372  -0.45423
O          O       0.75783   0.67503   0.96181  -0.47201
O          O       0.61936   0.80685   0.93355  -0.37784
O          O       0.42035   0.65065   0.79137  -0.48294
O          O       0.34367   0.45665   0.79570  -0.48362
O          O       0.67451   0.16749   0.86847  -0.37920
O          O       0.78801   0.25537   0.92297  -0.45471
O          O       0.24447   0.32444   0.46263  -0.47110
O          O       0.38504   0.19418   0.43373  -0.37578
O          O       0.57393   0.35003   0.29056  -0.48268
O          O       0.65662   0.54123   0.29560  -0.48662
O          O       0.32156   0.83276   0.36869  -0.37631
O          O       0.20709   0.74402   0.42290  -0.45462
O          O       0.32572   0.24207   0.53749  -0.47045
O          O       0.19399   0.37969   0.56683  -0.37579
O          O       0.34920   0.57472   0.70879  -0.48597
O          O       0.54116   0.65622   0.70429  -0.48429
O          O       0.83340   0.32607   0.63082  -0.37774
O          O       0.74521   0.20844   0.57731  -0.45460
O          O       0.67478   0.75767   0.03725  -0.47081
O          O       0.80661   0.62012   0.06650  -0.37830
O          O       0.65131   0.41847   0.20698  -0.48910
O          O       0.45647   0.34413   0.20413  -0.48148
O          O       0.16756   0.67412   0.13099  -0.37589
O          O       0.25493   0.79151   0.07730  -0.45267
O          O       0.73837   0.18006   0.28962  -0.47190
O          O       0.88781   0.30600   0.31534  -0.37033
O          O       0.08058   0.15134   0.45789  -0.48900
O          O       0.15649   0.95704   0.45379  -0.48829
O          O       0.82557   0.66708   0.38043  -0.37970
O          O       0.71123   0.75530   0.32623  -0.45289
O          O       0.25598   0.82172   0.78766  -0.47224
O          O       0.11211   0.69358   0.81524  -0.37626
O          O       0.92074   0.84902   0.95814  -0.48900
O          O       0.84409   0.04328   0.95421  -0.48579
O          O       0.17456   0.33236   0.88037  -0.37927
O          O       0.28890   0.24408   0.82621  -0.45496

