data_crystal

_audit_creation_method 'AiiDA-DDEC plugin'

_cell_length_a        12.02270
_cell_length_b        17.37515
_cell_length_c        17.37515

_cell_angle_alpha     83.01349
_cell_angle_beta     69.64653
_cell_angle_gamma     69.64653

_symmetry_space_group_name_Hall 'P 1'
_symmetry_space_group_name_H-M  'P 1'

loop_
_symmetry_equiv_pos_as_xyz
 'x,y,z'

loop_
_atom_site_label
_atom_site_type_symbol
_atom_site_fract_x
_atom_site_fract_y
_atom_site_fract_z
_atom_site_charge
Co         Co      0.08978   0.82141   0.74966   0.59282
Co         Co      0.66002   0.67856   0.75016   0.59244
Co         Co      0.91023   0.75033   0.67858   0.59286
Co         Co      0.33999   0.74984   0.82143   0.59249
Co         Co      0.91023   0.17859   0.25033   0.59291
Co         Co      0.33998   0.32143   0.24984   0.59244
Co         Co      0.08978   0.24967   0.32141   0.59288
Co         Co      0.66002   0.25016   0.17856   0.59239
H          H       0.15169   0.98140   0.65251   0.11796
H          H       0.46601   0.88551   0.74392   0.10700
H          H       0.53774   0.99378   0.67969   0.09297
H          H       0.78540   0.51807   0.84627   0.11740
H          H       0.09425   0.61496   0.75671   0.10732
H          H       0.21030   0.50631   0.82043   0.09283
H          H       0.13255   0.65298   0.51835   0.11730
H          H       0.35170   0.74318   0.61418   0.10587
H          H       0.53155   0.67924   0.50555   0.09253
H          H       0.30351   0.84685   0.98201   0.11751
H          H       0.70977   0.75563   0.88533   0.10755
H          H       0.71765   0.82013   0.99316   0.09334
H          H       0.84831   0.84749   0.51860   0.11810
H          H       0.53400   0.75608   0.61449   0.10688
H          H       0.46227   0.82031   0.50622   0.09298
H          H       0.21461   0.65372   0.98193   0.11745
H          H       0.90576   0.74329   0.88504   0.10717
H          H       0.78971   0.67956   0.99369   0.09269
H          H       0.86746   0.98164   0.84702   0.11731
H          H       0.64831   0.88582   0.75682   0.10579
H          H       0.46846   0.99445   0.82076   0.09256
H          H       0.69650   0.51799   0.65314   0.11777
H          H       0.29024   0.61467   0.74436   0.10744
H          H       0.28236   0.50684   0.67987   0.09322
H          H       0.84831   0.01860   0.34749   0.11799
H          H       0.53399   0.11449   0.25608   0.10700
H          H       0.46227   0.00622   0.32031   0.09297
H          H       0.21460   0.48193   0.15372   0.11745
H          H       0.90575   0.38504   0.24329   0.10716
H          H       0.78971   0.49369   0.17956   0.09275
H          H       0.86746   0.34702   0.48164   0.11734
H          H       0.64830   0.25682   0.38582   0.10582
H          H       0.46846   0.32076   0.49445   0.09250
H          H       0.69649   0.15315   0.01799   0.11767
H          H       0.29023   0.24437   0.11467   0.10747
H          H       0.28236   0.17987   0.00684   0.09330
H          H       0.15169   0.15251   0.48140   0.11798
H          H       0.46601   0.24392   0.38551   0.10701
H          H       0.53773   0.17969   0.49378   0.09306
H          H       0.78540   0.34627   0.01807   0.11743
H          H       0.09425   0.25671   0.11496   0.10720
H          H       0.21029   0.32044   0.00631   0.09271
H          H       0.13254   0.01836   0.15298   0.11732
H          H       0.35170   0.11418   0.24318   0.10582
H          H       0.53154   0.00555   0.17924   0.09251
H          H       0.30351   0.48201   0.34685   0.11761
H          H       0.70977   0.38533   0.25563   0.10751
H          H       0.71764   0.49316   0.32013   0.09334
H          H       0.25543   0.06190   0.56190   0.10287
H          H       0.62930   0.09497   0.59497   0.10842
H          H       0.87804   0.43816   0.93816   0.10183
H          H       0.31835   0.40527   0.90526   0.10886
H          H       0.31692   0.56163   0.43816   0.10361
H          H       0.72465   0.59415   0.40446   0.10935
H          H       0.31692   0.93816   0.06163   0.10358
H          H       0.72465   0.90446   0.09415   0.10933
H          H       0.74457   0.93810   0.43810   0.10296
H          H       0.37071   0.90503   0.40503   0.10837
H          H       0.12196   0.56184   0.06184   0.10192
H          H       0.68166   0.59473   0.09473   0.10881
H          H       0.68308   0.06184   0.93836   0.10366
H          H       0.27536   0.09554   0.90585   0.10921
H          H       0.68309   0.43837   0.56184   0.10363
H          H       0.27536   0.40585   0.59554   0.10924
C          C       0.22110   0.94795   0.68160  -0.05274
C          C       0.33276   0.96071   0.67697  -0.03246
C          C       0.38106   0.89966   0.72870  -0.05382
C          C       0.38750   0.02145   0.62811   0.08766
C          C       0.49469   0.03086   0.63603  -0.14554
C          C       0.85026   0.55173   0.81767  -0.05147
C          C       0.96965   0.53930   0.82289  -0.03302
C          C       0.00846   0.60060   0.77152  -0.05506
C          C       0.03609   0.47859   0.87192   0.08634
C          C       0.16065   0.46921   0.86408  -0.14534
C          C       0.16862   0.68186   0.55177  -0.05186
C          C       0.29330   0.67673   0.53905  -0.03225
C          C       0.28070   0.72831   0.60003  -0.05339
C          C       0.40883   0.62771   0.47830   0.08536
C          C       0.52559   0.63553   0.46864  -0.14354
C          C       0.40213   0.81788   0.94847  -0.05229
C          C       0.50939   0.82271   0.96075  -0.03223
C          C       0.60946   0.77089   0.89972  -0.05435
C          C       0.51544   0.87170   0.02114   0.08742
C          C       0.63077   0.86372   0.03030  -0.14652
C          C       0.77890   0.81840   0.55205  -0.05277
C          C       0.66725   0.82302   0.53929  -0.03229
C          C       0.61895   0.77130   0.60034  -0.05407
C          C       0.61251   0.87189   0.47855   0.08770
C          C       0.50532   0.86397   0.46914  -0.14556
C          C       0.14974   0.68233   0.94827  -0.05148
C          C       0.03035   0.67711   0.96070  -0.03306
C          C       0.99155   0.72848   0.89939  -0.05530
C          C       0.96392   0.62808   0.02141   0.08619
C          C       0.83936   0.63592   0.03079  -0.14536
C          C       0.83139   0.94823   0.81814  -0.05193
C          C       0.70670   0.96095   0.82327  -0.03243
C          C       0.71931   0.89996   0.77169  -0.05353
C          C       0.59118   0.02170   0.87229   0.08545
C          C       0.47441   0.03136   0.86447  -0.14368
C          C       0.59788   0.55153   0.68212  -0.05219
C          C       0.49062   0.53925   0.67729  -0.03234
C          C       0.39055   0.60028   0.72911  -0.05446
C          C       0.48456   0.47886   0.62829   0.08736
C          C       0.36923   0.46970   0.63627  -0.14652
C          C       0.77890   0.05205   0.31840  -0.05272
C          C       0.66725   0.03929   0.32302  -0.03236
C          C       0.61894   0.10034   0.27129  -0.05411
C          C       0.61251   0.97855   0.37189   0.08765
C          C       0.50532   0.96914   0.36397  -0.14558
C          C       0.14974   0.44827   0.18233  -0.05145
C          C       0.03035   0.46070   0.17711  -0.03290
C          C       0.99155   0.39940   0.22848  -0.05514
C          C       0.96392   0.52141   0.12808   0.08632
C          C       0.83936   0.53079   0.13592  -0.14535
C          C       0.83139   0.31814   0.44823  -0.05201
C          C       0.70670   0.32327   0.46095  -0.03234
C          C       0.71930   0.27169   0.39996  -0.05342
C          C       0.59118   0.37229   0.52170   0.08539
C          C       0.47441   0.36447   0.53136  -0.14349
C          C       0.59788   0.18212   0.05153  -0.05216
C          C       0.49062   0.17729   0.03925  -0.03236
C          C       0.39055   0.22911   0.10028  -0.05435
C          C       0.48456   0.12830   0.97886   0.08743
C          C       0.36923   0.13628   0.96969  -0.14669
C          C       0.22110   0.18160   0.44795  -0.05280
C          C       0.33276   0.17698   0.46071  -0.03225
C          C       0.38106   0.22870   0.39966  -0.05403
C          C       0.38750   0.12811   0.52145   0.08756
C          C       0.49469   0.13603   0.53086  -0.14549
C          C       0.85026   0.31767   0.05173  -0.05137
C          C       0.96965   0.32289   0.03930  -0.03317
C          C       0.00846   0.27152   0.10060  -0.05500
C          C       0.03609   0.37192   0.97859   0.08617
C          C       0.16065   0.36408   0.96921  -0.14534
C          C       0.16861   0.05177   0.18186  -0.05191
C          C       0.29330   0.03905   0.17673  -0.03238
C          C       0.28070   0.10004   0.22830  -0.05339
C          C       0.40883   0.97830   0.12771   0.08535
C          C       0.52559   0.96864   0.13553  -0.14360
C          C       0.40212   0.44847   0.31788  -0.05222
C          C       0.50939   0.46075   0.32271  -0.03229
C          C       0.60946   0.39972   0.27089  -0.05436
C          C       0.51544   0.52114   0.37170   0.08738
C          C       0.63077   0.53030   0.36372  -0.14653
C          C       0.33600   0.07034   0.57034  -0.18887
C          C       0.54707   0.08783   0.58783  -0.07373
C          C       0.97560   0.42969   0.92969  -0.18577
C          C       0.22181   0.41232   0.91232  -0.07399
C          C       0.40606   0.57002   0.42956  -0.18842
C          C       0.63506   0.58720   0.41177  -0.07435
C          C       0.40606   0.92956   0.07002  -0.18847
C          C       0.63506   0.91176   0.08720  -0.07427
C          C       0.66401   0.92966   0.42966  -0.18890
C          C       0.45294   0.91217   0.41217  -0.07372
C          C       0.02440   0.57031   0.07031  -0.18580
C          C       0.77819   0.58768   0.08768  -0.07408
C          C       0.59394   0.07044   0.92998  -0.18836
C          C       0.36495   0.08823   0.91279  -0.07422
C          C       0.59394   0.42998   0.57043  -0.18829
C          C       0.36495   0.41280   0.58823  -0.07440
N          N       0.20508   0.88399   0.73166  -0.18634
N          N       0.30497   0.85358   0.76082  -0.20503
N          N       0.82040   0.61573   0.76764  -0.18751
N          N       0.91864   0.64649   0.73906  -0.20350
N          N       0.08860   0.73207   0.61559  -0.18809
N          N       0.15834   0.76085   0.64597  -0.20348
N          N       0.43612   0.76767   0.88477  -0.18718
N          N       0.56521   0.73859   0.85410  -0.20433
N          N       0.79493   0.76834   0.61601  -0.18623
N          N       0.69504   0.73917   0.64642  -0.20493
N          N       0.17961   0.73235   0.88426  -0.18733
N          N       0.08137   0.76094   0.85350  -0.20337
N          N       0.91141   0.88440   0.76792  -0.18788
N          N       0.84167   0.85403   0.73915  -0.20334
N          N       0.56389   0.61523   0.73233  -0.18711
N          N       0.43479   0.64590   0.76140  -0.20444
N          N       0.79492   0.11601   0.26834  -0.18634
N          N       0.69504   0.14642   0.23917  -0.20480
N          N       0.17961   0.38427   0.23235  -0.18736
N          N       0.08137   0.35351   0.26094  -0.20359
N          N       0.91140   0.26792   0.38440  -0.18783
N          N       0.84167   0.23915   0.35403  -0.20354
N          N       0.56389   0.23233   0.11523  -0.18721
N          N       0.43479   0.26141   0.14589  -0.20435
N          N       0.20508   0.23166   0.38399  -0.18631
N          N       0.30497   0.26083   0.35358  -0.20490
N          N       0.82040   0.26765   0.11573  -0.18741
N          N       0.91863   0.23906   0.14649  -0.20361
N          N       0.08860   0.11560   0.23207  -0.18798
N          N       0.15834   0.14597   0.26085  -0.20351
N          N       0.43611   0.38477   0.26767  -0.18722
N          N       0.56521   0.35410   0.23859  -0.20433

