data_crystal

_audit_creation_method 'AiiDA-DDEC plugin'

_cell_length_a        11.82338
_cell_length_b        15.58449
_cell_length_c        15.87951

_cell_angle_alpha     89.99954
_cell_angle_beta     89.99954
_cell_angle_gamma     90.00000

_symmetry_space_group_name_Hall 'P 1'
_symmetry_space_group_name_H-M  'P 1'

loop_
_symmetry_equiv_pos_as_xyz
 'x,y,z'

loop_
_atom_site_label
_atom_site_type_symbol
_atom_site_fract_x
_atom_site_fract_y
_atom_site_fract_z
_atom_site_charge
Zn         Zn      0.97123   0.18861   0.05152   0.98394
Zn         Zn      0.02869   0.18862   0.44845   0.98478
Zn         Zn      0.47153   0.30983   0.44794   0.98191
Zn         Zn      0.52847   0.30983   0.05206   0.98180
Zn         Zn      0.02876   0.81139   0.94848   0.98393
Zn         Zn      0.97131   0.81138   0.55155   0.98483
Zn         Zn      0.52847   0.69017   0.55206   0.98192
Zn         Zn      0.47153   0.69017   0.94793   0.98177
Zn         Zn      0.75069   0.25016   0.15682   1.09427
Zn         Zn      0.24933   0.25017   0.34320   1.09401
Zn         Zn      0.24930   0.74984   0.84318   1.09425
Zn         Zn      0.75066   0.74983   0.65680   1.09398
Zn         Zn     -0.00045   0.82089   0.75022   1.06831
Zn         Zn      0.50000   0.67704   0.75000   1.06694
Zn         Zn      0.00045   0.17911   0.24978   1.06824
Zn         Zn      0.50000   0.32296   0.25000   1.06692
H          H       0.04895   0.41912   0.91446   0.14551
H          H       0.04417   0.55913   0.83748   0.13066
H          H       0.95105   0.41911   0.58554   0.14554
H          H       0.95583   0.55913   0.66252   0.13056
H          H       0.54890   0.08106   0.58655   0.14511
H          H       0.54567   0.94043   0.66224   0.13056
H          H       0.45110   0.08106   0.91345   0.14502
H          H       0.45433   0.94043   0.83776   0.13068
H          H       0.95105   0.58089   0.08554   0.14569
H          H       0.95583   0.44087   0.16252   0.13060
H          H       0.04895   0.58089   0.41446   0.14556
H          H       0.04417   0.44088   0.33748   0.13054
H          H       0.45110   0.91894   0.41345   0.14513
H          H       0.45433   0.05958   0.33776   0.13067
H          H       0.54890   0.91894   0.08655   0.14494
H          H       0.54567   0.05957   0.16224   0.13061
C          C       0.97116   0.45623   0.91054  -0.07326
C          C       0.87555   0.42745   0.95397  -0.03542
C          C       0.88476   0.34601   0.00479   0.57663
C          C       0.77321   0.47457   0.94915  -0.00391
C          C       0.76657   0.54767   0.89714  -0.03096
C          C       0.65519   0.59536   0.88683   0.57765
C          C       0.86440   0.57707   0.85646  -0.01534
C          C       0.86458   0.65715   0.80336   0.58539
C          C       0.96741   0.53296   0.86539  -0.07018
C          C       0.67269   0.44556   0.00134   0.55456
C          C       0.02884   0.45623   0.58946  -0.07345
C          C       0.12445   0.42745   0.54602  -0.03535
C          C       0.11523   0.34601   0.49520   0.57681
C          C       0.22679   0.47457   0.55084  -0.00369
C          C       0.23343   0.54768   0.60285  -0.03095
C          C       0.34481   0.59536   0.61317   0.57749
C          C       0.13560   0.57708   0.64353  -0.01540
C          C       0.13540   0.65717   0.69662   0.58493
C          C       0.03259   0.53296   0.63460  -0.07003
C          C       0.32731   0.44556   0.49866   0.55462
C          C       0.47145   0.04348   0.59008  -0.07216
C          C       0.37579   0.07229   0.54675  -0.03697
C          C       0.38443   0.15418   0.49633   0.57595
C          C       0.27369   0.02475   0.55148  -0.00320
C          C       0.26798   0.95094   0.60287  -0.03117
C          C       0.15704   0.90282   0.61307   0.57717
C          C       0.36603   0.92142   0.64330  -0.01482
C          C       0.36657   0.84098   0.69620   0.58872
C          C       0.46850   0.96629   0.63467  -0.07059
C          C       0.17318   0.05375   0.49928   0.55492
C          C       0.52855   0.04348   0.90991  -0.07244
C          C       0.62421   0.07230   0.95325  -0.03680
C          C       0.61556   0.15418   0.00367   0.57612
C          C       0.72630   0.02475   0.94853  -0.00310
C          C       0.73201   0.95094   0.89715  -0.03129
C          C       0.84294   0.90282   0.88695   0.57805
C          C       0.63397   0.92142   0.85670  -0.01500
C          C       0.63343   0.84099   0.80380   0.58860
C          C       0.53149   0.96630   0.86533  -0.07053
C          C       0.82681   0.05375   0.00072   0.55466
C          C       0.02884   0.54377   0.08946  -0.07333
C          C       0.12445   0.57255   0.04602  -0.03542
C          C       0.11524   0.65400   0.99521   0.57640
C          C       0.22679   0.52544   0.05084  -0.00380
C          C       0.23343   0.45233   0.10285  -0.03124
C          C       0.34481   0.40464   0.11317   0.57851
C          C       0.13560   0.42293   0.14353  -0.01550
C          C       0.13542   0.34285   0.19663   0.58554
C          C       0.03259   0.46704   0.13460  -0.07013
C          C       0.32731   0.55445  -0.00134   0.55449
C          C       0.97116   0.54377   0.41054  -0.07333
C          C       0.87555   0.57255   0.45398  -0.03521
C          C       0.88477   0.65400   0.50479   0.57678
C          C       0.77321   0.52543   0.44915  -0.00380
C          C       0.76657   0.45233   0.39715  -0.03118
C          C       0.65519   0.40464   0.38683   0.57842
C          C       0.86440   0.42293   0.35647  -0.01531
C          C       0.86460   0.34284   0.30337   0.58516
C          C       0.96741   0.46705   0.36540  -0.07021
C          C       0.67269   0.55445   0.50133   0.55458
C          C       0.52855   0.95653   0.40992  -0.07217
C          C       0.62421   0.92771   0.45325  -0.03700
C          C       0.61556   0.84583   0.50367   0.57609
C          C       0.72631   0.97525   0.44852  -0.00329
C          C       0.73202   0.04906   0.39713  -0.03106
C          C       0.84296   0.09719   0.38693   0.57704
C          C       0.63397   0.07859   0.35670  -0.01481
C          C       0.63343   0.15902   0.30379   0.58864
C          C       0.53150   0.03371   0.36533  -0.07060
C          C       0.82682   0.94626   0.50072   0.55498
C          C       0.47145   0.95652   0.09008  -0.07251
C          C       0.37579   0.92771   0.04675  -0.03683
C          C       0.38443   0.84583   0.99633   0.57600
C          C       0.27369   0.97525   0.05147  -0.00302
C          C       0.26799   0.04906   0.10285  -0.03130
C          C       0.15706   0.09718   0.11304   0.57800
C          C       0.36603   0.07859   0.14329  -0.01494
C          C       0.36657   0.15902   0.19620   0.58848
C          C       0.46851   0.03370   0.13467  -0.07053
C          C       0.17319   0.94626  -0.00072   0.55427
O          O       0.96793   0.29711   0.98711  -0.49342
O          O       0.81095   0.33368   0.06095  -0.51236
O          O       0.66284   0.48408   0.06982  -0.31326
O          O       0.61180   0.38558   0.97064  -0.47764
O          O       0.62519   0.64033   0.94968  -0.48405
O          O       0.60566   0.58494   0.81706  -0.42985
O          O       0.80628   0.65351   0.73677  -0.45240
O          O       0.92562   0.71857   0.82881  -0.52413
O          O       0.60916   0.31969   0.15758  -0.70597
O          O       0.03207   0.29711   0.51289  -0.49362
O          O       0.18905   0.33369   0.43905  -0.51220
O          O       0.33716   0.48408   0.43018  -0.31317
O          O       0.38820   0.38558   0.52936  -0.47791
O          O       0.37481   0.64033   0.55031  -0.48366
O          O       0.39434   0.58494   0.68294  -0.43006
O          O       0.19371   0.65351   0.76322  -0.45244
O          O       0.07436   0.71858   0.67121  -0.52309
O          O       0.39086   0.31969   0.34242  -0.70595
O          O       0.46910   0.20222   0.51279  -0.49306
O          O       0.30872   0.16814   0.44194  -0.51690
O          O       0.16582   0.01715   0.42960  -0.31442
O          O       0.10947   0.11194   0.53008  -0.48099
O          O       0.12654   0.85802   0.55022  -0.48519
O          O       0.10796   0.91288   0.68306  -0.42929
O          O       0.30858   0.84453   0.76297  -0.45643
O          O       0.42783   0.77956   0.67091  -0.52722
O          O       0.10825   0.18171   0.34230  -0.71614
O          O       0.53091   0.20222   0.98721  -0.49305
O          O       0.69128   0.16815   0.05806  -0.51716
O          O       0.83419   0.01715   0.07040  -0.31458
O          O       0.89053   0.11193   0.96990  -0.48087
O          O       0.87346   0.85801   0.94978  -0.48547
O          O       0.89200   0.91289   0.81693  -0.43078
O          O       0.69142   0.84453   0.73703  -0.45638
O          O       0.57216   0.77956   0.82908  -0.52727
O          O       0.89183   0.18170   0.15771  -0.71546
O          O       0.03207   0.70289   0.01289  -0.49332
O          O       0.18905   0.66632   0.93905  -0.51212
O          O       0.33716   0.51592   0.93018  -0.31319
O          O       0.38820   0.61442   0.02936  -0.47773
O          O       0.37481   0.35967   0.05031  -0.48431
O          O       0.39434   0.41506   0.18294  -0.43021
O          O       0.19372   0.34649   0.26322  -0.45246
O          O       0.07438   0.28143   0.17119  -0.52418
O          O       0.39084   0.68031   0.84242  -0.70597
O          O       0.96793   0.70289   0.48711  -0.49350
O          O       0.81095   0.66632   0.56095  -0.51230
O          O       0.66284   0.51592   0.56981  -0.31342
O          O       0.61180   0.61442   0.47064  -0.47761
O          O       0.62519   0.35968   0.44969  -0.48439
O          O       0.60566   0.41506   0.31706  -0.43001
O          O       0.80629   0.34649   0.23678  -0.45237
O          O       0.92564   0.28142   0.32879  -0.52336
O          O       0.60914   0.68031   0.65758  -0.70605
O          O       0.53090   0.79779   0.48721  -0.49309
O          O       0.69128   0.83186   0.55806  -0.51708
O          O       0.83418   0.98286   0.57039  -0.31446
O          O       0.89053   0.88806   0.46992  -0.48103
O          O       0.87346   0.14199   0.44978  -0.48509
O          O       0.89204   0.08712   0.31694  -0.42922
O          O       0.69142   0.15547   0.23702  -0.45641
O          O       0.57217   0.22045   0.32908  -0.52716
O          O       0.89175   0.81830   0.65769  -0.71613
O          O       0.46909   0.79779   0.01279  -0.49318
O          O       0.30872   0.83186   0.94193  -0.51700
O          O       0.16581   0.98286   0.92960  -0.31409
O          O       0.10947   0.88807   0.03010  -0.48092
O          O       0.12653   0.14199   0.05022  -0.48521
O          O       0.10800   0.08711   0.18306  -0.43093
O          O       0.30858   0.15548   0.26297  -0.45648
O          O       0.42783   0.22045   0.17091  -0.52710
O          O       0.10817   0.81830   0.84229  -0.71539

