data_crystal

_audit_creation_method 'AiiDA-DDEC plugin'

_cell_length_a         9.73170
_cell_length_b        11.31328
_cell_length_c        23.60435

_cell_angle_alpha     89.99951
_cell_angle_beta     90.00045
_cell_angle_gamma     95.96927

_symmetry_space_group_name_Hall 'P 1'
_symmetry_space_group_name_H-M  'P 1'

loop_
_symmetry_equiv_pos_as_xyz
 'x,y,z'

loop_
_atom_site_label
_atom_site_type_symbol
_atom_site_fract_x
_atom_site_fract_y
_atom_site_fract_z
_atom_site_charge
Mn         Mn      0.74746   0.50191   0.23328   0.95511
Mn         Mn      0.75255   0.49808   0.73330   0.95480
Mn         Mn      0.25258   0.49812   0.76674   0.95491
Mn         Mn      0.24747   0.50191   0.26672   0.95489
H          H       0.85120   0.35316   0.33720   0.10082
H          H       0.84993   0.34088   0.44222   0.12682
H          H       0.64630   0.66319   0.44340   0.12591
H          H       0.64221   0.65253   0.33832   0.09962
H          H       0.92129   0.39340   0.52457   0.11946
H          H       0.91093   0.39143   0.62986   0.10128
H          H       0.59256   0.60557   0.63219   0.10157
H          H       0.57882   0.60898   0.52691   0.11909
H          H       0.24925   0.00151   0.35646   0.14639
H          H       0.07023   0.87270   0.19778   0.12019
H          H       0.25103  -0.00072   0.14677   0.09955
H          H       0.43084   0.12748   0.19780   0.12098
H          H       0.61292   0.26143   0.31806   0.09944
H          H       0.60256   0.18032   0.25432   0.10160
H          H       0.88283   0.74345   0.31710   0.09971
H          H       0.89917   0.82362   0.25331   0.10274
H          H       0.64882   0.64685   0.83720   0.10085
H          H       0.65010   0.65913   0.94222   0.12679
H          H       0.85373   0.33682   0.94341   0.12593
H          H       0.85780   0.34748   0.83832   0.09971
H          H       0.57873   0.60660   0.02457   0.11931
H          H       0.58909   0.60857   0.12985   0.10110
H          H       0.90746   0.39444   0.13219   0.10174
H          H       0.92120   0.39103   0.02691   0.11926
H          H       0.25078  -0.00149   0.85646   0.14635
H          H       0.42979   0.12731   0.69777   0.12041
H          H       0.24898   0.00072   0.64677   0.09959
H          H       0.06917   0.87253   0.69780   0.12088
H          H       0.88710   0.73862   0.81809   0.09936
H          H       0.89749   0.81967   0.75433   0.10168
H          H       0.61719   0.25657   0.81710   0.10007
H          H       0.60085   0.17639   0.75331   0.10281
H          H       0.14882   0.64686   0.66281   0.10076
H          H       0.15007   0.65912   0.55778   0.12673
H          H       0.35371   0.33682   0.55661   0.12586
H          H       0.35782   0.34749   0.66169   0.09953
H          H       0.07873   0.60661   0.47543   0.11933
H          H       0.08909   0.60857   0.37015   0.10111
H          H       0.40746   0.39444   0.36782   0.10180
H          H       0.42120   0.39103   0.47310   0.11932
H          H       0.75075  -0.00152   0.64354   0.14645
H          H       0.92978   0.12731   0.80222   0.12046
H          H       0.74899   0.00073   0.85323   0.09953
H          H       0.56917   0.87253   0.80221   0.12077
H          H       0.38712   0.73848   0.68198   0.09942
H          H       0.39742   0.81967   0.74570   0.10135
H          H       0.11718   0.25655   0.68290   0.10005
H          H       0.10084   0.17638   0.74669   0.10285
H          H       0.35120   0.35316   0.16281   0.10070
H          H       0.34992   0.34088   0.05778   0.12676
H          H       0.14629   0.66318   0.05660   0.12590
H          H       0.14221   0.65252   0.16168   0.09963
H          H       0.42129   0.39341   0.97543   0.11947
H          H       0.41093   0.39144   0.87015   0.10135
H          H       0.09254   0.60556   0.86782   0.10164
H          H       0.07882   0.60898   0.97309   0.11914
H          H       0.74925   0.00151   0.14354   0.14640
H          H       0.57023   0.87270   0.30223   0.12009
H          H       0.75103  -0.00072   0.35323   0.09950
H          H       0.93085   0.12748   0.30220   0.12106
H          H       0.11292   0.26144   0.18194   0.09941
H          H       0.10256   0.18032   0.24568   0.10162
H          H       0.38283   0.74345   0.18290   0.09986
H          H       0.39917   0.82362   0.24669   0.10286
C          C       0.80391   0.41818   0.36254   0.09118
C          C       0.80516   0.41364   0.42144  -0.18559
C          C       0.74845   0.50202   0.45301   0.09231
C          C       0.69055   0.59077   0.42210  -0.18396
C          C       0.69002   0.58698   0.36315   0.09335
C          C       0.74973   0.50123   0.51569   0.08476
C          C       0.84414   0.43987   0.54620  -0.19227
C          C       0.84076   0.43986   0.60515   0.10006
C          C       0.66168   0.55835   0.60638   0.09937
C          C       0.65661   0.56142   0.54747  -0.18971
C          C       0.34990   0.07452   0.28087   0.27814
C          C       0.24971   0.00100   0.31045  -0.33509
C          C       0.14984   0.92700   0.28097   0.27868
C          C       0.14853   0.92728   0.22149  -0.25869
C          C       0.25040   0.00006   0.19284  -0.04074
C          C       0.35195   0.07338   0.22142  -0.25838
C          C       0.54092   0.22524   0.28505  -0.13867
C          C       0.47940   0.32920   0.25618   0.58287
C          C       0.95783   0.77808   0.28488  -0.14007
C          C       0.01910   0.67334   0.25701   0.58423
C          C       0.69611   0.58183   0.86254   0.09115
C          C       0.69487   0.58637   0.92144  -0.18567
C          C       0.75158   0.49799   0.95302   0.09249
C          C       0.80947   0.40924   0.92210  -0.18391
C          C       0.80999   0.41303   0.86315   0.09312
C          C       0.75028   0.49877   0.01569   0.08478
C          C       0.65588   0.56013   0.04620  -0.19243
C          C       0.65926   0.56015   0.10515   0.10001
C          C       0.83834   0.44166   0.10639   0.09939
C          C       0.84340   0.43859   0.04747  -0.18955
C          C       0.15012   0.92549   0.78087   0.27828
C          C       0.25031  -0.00098   0.81045  -0.33479
C          C       0.35018   0.07301   0.78097   0.27809
C          C       0.35149   0.07272   0.72149  -0.25835
C          C       0.24961  -0.00006   0.69284  -0.04077
C          C       0.14806   0.92663   0.72143  -0.25871
C          C       0.95910   0.77476   0.78507  -0.13915
C          C       0.02065   0.67080   0.75621   0.58278
C          C       0.54220   0.22193   0.78488  -0.13975
C          C       0.48089   0.32666   0.75701   0.58401
C          C       0.19611   0.58183   0.63747   0.09114
C          C       0.19484   0.58637   0.57857  -0.18522
C          C       0.25156   0.49799   0.54699   0.09217
C          C       0.30946   0.40924   0.57791  -0.18382
C          C       0.31001   0.41304   0.63686   0.09347
C          C       0.25028   0.49877   0.48432   0.08483
C          C       0.15588   0.56014   0.45381  -0.19244
C          C       0.15926   0.56015   0.39485   0.10003
C          C       0.33835   0.44167   0.39362   0.09926
C          C       0.34341   0.43859   0.45254  -0.18976
C          C       0.65011   0.92547   0.71914   0.27828
C          C       0.75029  -0.00100   0.68956  -0.33515
C          C       0.85016   0.07299   0.71903   0.27852
C          C       0.85148   0.07272   0.77851  -0.25836
C          C       0.74961  -0.00005   0.80716  -0.04085
C          C       0.64807   0.92662   0.77858  -0.25866
C          C       0.45910   0.77475   0.71498  -0.13919
C          C       0.52067   0.67082   0.74385   0.58338
C          C       0.04218   0.22192   0.71511  -0.14012
C          C       0.98092   0.32667   0.74300   0.58419
C          C       0.30391   0.41818   0.13746   0.09148
C          C       0.30516   0.41364   0.07856  -0.18551
C          C       0.24844   0.50201   0.04699   0.09224
C          C       0.19055   0.59077   0.07790  -0.18398
C          C       0.19002   0.58698   0.13685   0.09343
C          C       0.24973   0.50124   0.98431   0.08471
C          C       0.34414   0.43987   0.95381  -0.19239
C          C       0.34075   0.43986   0.89485   0.10009
C          C       0.16166   0.55834   0.89362   0.09939
C          C       0.15661   0.56142   0.95254  -0.18970
C          C       0.84991   0.07453   0.21913   0.27815
C          C       0.74971   0.00100   0.18955  -0.33514
C          C       0.64985   0.92701   0.21903   0.27873
C          C       0.64853   0.92728   0.27851  -0.25857
C          C       0.75041   0.00006   0.30716  -0.04066
C          C       0.85195   0.07338   0.27857  -0.25841
C          C       0.04092   0.22525   0.21495  -0.13874
C          C       0.97938   0.32919   0.24382   0.58334
C          C       0.45783   0.77808   0.21512  -0.14025
C          C       0.51914   0.67335   0.24299   0.58398
N          N       0.74653   0.50276   0.33315  -0.23848
N          N       0.75141   0.49814   0.63519  -0.19612
N          N       0.75348   0.49724   0.83315  -0.23834
N          N       0.74862   0.50188   0.13519  -0.19622
N          N       0.25352   0.49728   0.66686  -0.23852
N          N       0.24862   0.50187   0.36482  -0.19606
N          N       0.24652   0.50275   0.16686  -0.23856
N          N       0.25139   0.49813   0.86482  -0.19629
O          O       0.44302   0.14336   0.31403  -0.19956
O          O       0.55942   0.39253   0.22293  -0.58169
O          O       0.35439   0.34458   0.26643  -0.55305
O          O       0.05634   0.85857   0.31417  -0.19886
O          O       0.14524   0.66026   0.26640  -0.55251
O          O       0.93856   0.60736   0.22519  -0.58161
O          O       0.05701   0.85666   0.81403  -0.19952
O          O       0.94061   0.60746   0.72293  -0.58206
O          O       0.14560   0.65542   0.76646  -0.55240
O          O       0.44369   0.14145   0.81417  -0.19901
O          O       0.35479   0.33975   0.76640  -0.55259
O          O       0.56148   0.39266   0.72519  -0.58157
O          O       0.55698   0.85663   0.68599  -0.19931
O          O       0.44065   0.60746   0.77708  -0.58196
O          O       0.64568   0.65544   0.73360  -0.55301
O          O       0.94367   0.14142   0.68583  -0.19877
O          O       0.85477   0.33974   0.73360  -0.55315
O          O       0.06145   0.39265   0.77481  -0.58111
O          O       0.94302   0.14336   0.18598  -0.19956
O          O       0.05944   0.39254   0.27708  -0.58201
O          O       0.85441   0.34458   0.23357  -0.55325
O          O       0.55634   0.85857   0.18583  -0.19903
O          O       0.64522   0.66026   0.23360  -0.55192
O          O       0.43854   0.60735   0.27482  -0.58202

