data_crystal

_audit_creation_method 'AiiDA-DDEC plugin'

_cell_length_a        11.44934
_cell_length_b        15.13688
_cell_length_c        16.87408

_cell_angle_alpha     90.05341
_cell_angle_beta     97.16837
_cell_angle_gamma     90.31587

_symmetry_space_group_name_Hall 'P 1'
_symmetry_space_group_name_H-M  'P 1'

loop_
_symmetry_equiv_pos_as_xyz
 'x,y,z'

loop_
_atom_site_label
_atom_site_type_symbol
_atom_site_fract_x
_atom_site_fract_y
_atom_site_fract_z
_atom_site_charge
Zn         Zn      0.02548   0.36804   0.53450   0.82511
Zn         Zn      0.97387   0.86813   0.96537   0.82436
Zn         Zn      0.97452   0.63196   0.46551   0.82503
Zn         Zn      0.02613   0.13187   0.03463   0.82429
H          H       0.99285   0.70009   0.71772   0.12459
H          H       0.75627   0.93020   0.85455   0.10242
H          H       0.38017   0.16161   0.26724   0.20478
H          H       0.60197   0.23467   0.95094   0.12575
H          H       0.24361   0.43079   0.64508   0.10144
H          H       0.16628   0.98835   0.88927   0.09436
H          H       0.97695   0.06626   0.55437   0.14388
H          H       0.46121   0.06100   0.14722   0.11968
H          H       0.58154   0.79928   0.07845   0.11337
H          H       0.83468   0.48743   0.61138   0.09411
H          H       0.41846   0.20072   0.92155   0.11341
H          H       0.40060   0.73567   0.54888   0.12584
H          H       0.79491   0.79120   0.06714   0.07444
H          H       0.39803   0.76533   0.04906   0.12565
H          H       0.18038   0.77699   0.04513   0.11263
H          H       0.20509   0.20880   0.93287   0.07433
H          H       0.59940   0.26434   0.45112   0.12566
H          H       0.81747   0.27483   0.45625   0.11394
H          H       0.93800   0.58013   0.26838   0.15517
H          H       0.53879   0.93900   0.85279   0.11969
H          H       0.81962   0.22301   0.95487   0.11263
H          H       0.00598   0.20102   0.78087   0.12604
H          H       0.03115   0.57069   0.94641   0.14546
H          H       0.75639   0.56921   0.35492   0.10132
H          H       0.24373   0.06981   0.14545   0.10242
H          H       0.02305   0.93374   0.44563   0.14395
H          H       0.83371   0.01165   0.11073   0.09433
H          H       0.61921   0.48917   0.61091   0.12035
H          H       0.53889   0.56055   0.35301   0.12000
H          H       0.16532   0.51257   0.38862   0.09404
H          H       0.94557   0.91909   0.77078   0.15526
H          H       0.00714   0.29991   0.28229   0.12451
H          H       0.41635   0.29976   0.42086   0.11250
H          H       0.99402   0.79899   0.21913   0.12585
H          H       0.38079   0.51083   0.38909   0.12026
H          H       0.46111   0.43946   0.64699   0.12011
H          H       0.20259   0.29191   0.43208   0.07475
H          H       0.37916   0.33283   0.76096   0.20382
H          H       0.96885   0.42931   0.05359   0.14545
H          H       0.62084   0.66719   0.23904   0.20386
H          H       0.18253   0.72517   0.54376   0.11418
H          H       0.61984   0.83838   0.73276   0.20497
H          H       0.79741   0.70809   0.56792   0.07484
H          H       0.58365   0.70024   0.57915   0.11238
H          H       0.06200   0.41987   0.73162   0.15499
H          H       0.05443   0.08091   0.22923   0.15529
H          H       0.38169   0.98915   0.88881   0.12027
H          H       0.61831   0.01086   0.11119   0.12022
C          C       0.22032   0.56066   0.42384   0.10659
C          C       0.01209   0.64460   0.83621  -0.00620
C          C       0.96821   0.43247   0.11799  -0.18822
C          C       0.28725   0.09814   0.09759   0.09606
C          C       0.71331   0.59759   0.40285   0.09587
C          C       0.31367   0.33094   0.80086  -0.24040
C          C       0.38566   0.17108   0.97322  -0.17972
C          C       0.38396   0.32937   0.47260  -0.17946
C          C       0.94881   0.51697   0.23915  -0.20158
C          C       0.04238   0.01358   0.34133   0.21588
C          C       0.22942   0.82258   0.01171   0.09803
C          C       0.98791   0.35541   0.16379  -0.00596
C          C       0.58946   0.12403   0.03174   0.09500
C          C       0.40790   0.40747   0.59708  -0.19622
C          C       0.58859   0.37561   0.53165   0.09674
C          C       0.97290   0.06040   0.78492  -0.03098
C          C       0.34169   0.56088   0.42358  -0.18449
C          C       0.96953   0.43947   0.28445  -0.02957
C          C       0.35275   0.68402   0.51337  -0.17959
C          C       0.77297   0.64568   0.16706  -0.04135
C          C       0.28669   0.40242   0.59715   0.09590
C          C       0.26323   0.32613   0.47713   0.09835
C          C       0.41054   0.87597   0.96826   0.09490
C          C       0.64725   0.31598   0.48664  -0.17969
C          C       0.00842   0.23035   0.62386   0.54065
C          C       0.53918   0.87068   0.96626   0.09369
C          C       0.99127   0.14311   0.66355  -0.00193
C          C       0.65813   0.06048   0.07638  -0.18340
C          C       0.05142   0.48905   0.84303   0.21466
C          C       0.68860   0.83440   0.69554  -0.24139
C          C       0.05120   0.48303   0.76085  -0.20170
C          C       0.41141   0.62440   0.46835   0.09677
C          C       0.99240   0.73116   0.87589   0.54136
C          C       0.97324   0.44332   0.37382   0.57449
C          C       0.68634   0.66907   0.19914  -0.24032
C          C       0.04436   0.01819   0.25934  -0.20405
C          C       0.59210   0.59253   0.40292  -0.19623
C          C       0.26498   0.17442   0.97781   0.10008
C          C       0.71275   0.90187   0.90242   0.09603
C          C       0.61604   0.67064   0.52740  -0.17886
C          C       0.02567   0.94295   0.12601   0.57636
C          C       0.86648   0.84603   0.61657   0.04971
C          C       0.73502   0.82558   0.02220   0.09994
C          C       0.45980   0.37090   0.53336   0.09388
C          C       0.61434   0.82892   0.02678  -0.17957
C          C       0.46082   0.12932   0.03374   0.09355
C          C       0.02676   0.55668   0.62618   0.57469
C          C       0.77968   0.43935   0.57616   0.10673
C          C       0.99158   0.76966   0.37614   0.54086
C          C       0.00760   0.26885   0.12412   0.54145
C          C       0.97433   0.05705   0.87399   0.57614
C          C       0.76904   0.32103   0.48915   0.09773
C          C       0.65831   0.43913   0.57642  -0.18437
C          C       0.95762   0.98642   0.65867   0.21589
C          C       0.22702   0.35433   0.83295  -0.04122
C          C       0.23095   0.67898   0.51085   0.09753
C          C       0.00874   0.85689   0.33645  -0.00210
C          C       0.97530   0.06474   0.61872  -0.18978
C          C       0.22059   0.94026   0.92434   0.10493
C          C       0.31141   0.16560   0.30447  -0.24108
C          C       0.94858   0.51096   0.15697   0.21458
C          C       0.77941   0.05974   0.07566   0.10490
C          C       0.98942   0.35940   0.24678  -0.11441
C          C       0.95564   0.98182   0.74066  -0.20408
C          C       0.64900   0.18304   0.98632  -0.17688
C          C       0.13351   0.15397   0.38344   0.04999
C          C       0.22161   0.14535   0.33461  -0.03891
C          C       0.01058   0.64060   0.75322  -0.11430
C          C       0.03047   0.56053   0.71555  -0.02946
C          C       0.02470   0.93527   0.38128  -0.18962
C          C       0.85684   0.65074   0.11480   0.04903
C          C       0.14316   0.34926   0.88520   0.04878
C          C       0.03179   0.56753   0.88202  -0.18800
C          C       0.35100   0.81696   0.01368  -0.17680
C          C       0.00863   0.85971   0.25353  -0.11632
C          C       0.77057   0.17742   0.98829   0.09812
C          C       0.59162   0.90704   0.90256  -0.19664
C          C       0.73677   0.67387   0.52287   0.09829
C          C       0.02710   0.93960   0.21508  -0.03097
C          C       0.40838   0.09297   0.09744  -0.19652
C          C       0.34187   0.93952   0.92362  -0.18343
C          C       0.99137   0.14030   0.74647  -0.11633
C          C       0.54020   0.62910   0.46664   0.09365
C          C       0.77840   0.85465   0.66540  -0.03857
N          N       0.21492   0.36288   0.53811  -0.20223
N          N       0.16437   0.88277   0.96722  -0.20675
N          N       0.16492   0.61867   0.46637  -0.20702
N          N       0.78508   0.63713   0.46189  -0.20224
N          N       0.83508   0.38133   0.53363  -0.20716
N          N       0.78398   0.86239   0.96138  -0.20393
N          N       0.21602   0.13761   0.03862  -0.20386
N          N       0.83563   0.11724   0.03278  -0.20678
O          O       0.02884   0.20060   0.16647  -0.55935
O          O       0.00064   0.26797   0.04744  -0.55604
O          O       0.98872   0.62528   0.58742  -0.53758
O          O       0.00048   0.23176   0.54718  -0.55836
O          O       0.02876   0.29885   0.66646  -0.56085
O          O      -0.00064   0.73203   0.95256  -0.55597
O          O       0.06177   0.48678   0.59527  -0.57798
O          O       0.05251   0.09320   0.38902  -0.08350
O          O       0.06501   0.41098   0.89241  -0.08276
O          O       0.06150   0.01289   0.09521  -0.57897
O          O       0.93499   0.58902   0.10759  -0.08291
O          O       0.97124   0.70115   0.33355  -0.56119
O          O       0.94748   0.90680   0.61098  -0.08360
O          O       0.93850   0.98712   0.90479  -0.57894
O          O       0.01172   0.12617   0.91278  -0.53708
O          O       0.98828   0.87383   0.08722  -0.53737
O          O       0.01128   0.37472   0.41258  -0.53766
O          O       0.93824   0.51323   0.40473  -0.57760
O          O       0.97116   0.79940   0.83354  -0.55921
O          O      -0.00048   0.76825   0.45282  -0.55821

