data_crystal

_audit_creation_method 'AiiDA-DDEC plugin'

_cell_length_a        10.18044
_cell_length_b        15.47594
_cell_length_c        15.47594

_cell_angle_alpha     90.00000
_cell_angle_beta     90.00000
_cell_angle_gamma     90.00000

_symmetry_space_group_name_Hall 'P 1'
_symmetry_space_group_name_H-M  'P 1'

loop_
_symmetry_equiv_pos_as_xyz
 'x,y,z'

loop_
_atom_site_label
_atom_site_type_symbol
_atom_site_fract_x
_atom_site_fract_y
_atom_site_fract_z
_atom_site_charge
La         La      0.25000   0.50000   0.50000   2.21980
La         La      0.75000   0.50000   0.50000   2.21983
H          H       0.78776   0.41421   0.74009   0.12910
H          H       0.78821   0.27894   0.82589   0.10944
H          H       0.78776   0.58579   0.25991   0.12911
H          H       0.78821   0.72106   0.17411   0.10943
H          H       0.78791   0.25998   0.41439   0.12884
H          H       0.78806   0.17364   0.27945   0.10904
H          H       0.78791   0.74002   0.58561   0.12885
H          H       0.78806   0.82636   0.72055   0.10904
H          H       0.71209   0.58561   0.74002   0.12882
H          H       0.71194   0.72055   0.82636   0.10904
H          H       0.71209   0.41439   0.25998   0.12884
H          H       0.71194   0.27945   0.17364   0.10902
H          H       0.71224   0.74009   0.41421   0.12909
H          H       0.71179   0.82589   0.27894   0.10944
H          H       0.71224   0.25991   0.58579   0.12910
H          H       0.71179   0.17411   0.72106   0.10944
H          H       0.21209   0.58561   0.25998   0.12883
H          H       0.21194   0.72055   0.17364   0.10903
H          H       0.21209   0.41439   0.74002   0.12885
H          H       0.21194   0.27945   0.82636   0.10900
H          H       0.21224   0.74009   0.58579   0.12910
H          H       0.21179   0.82589   0.72106   0.10944
H          H       0.21224   0.25991   0.41421   0.12911
H          H       0.21179   0.17411   0.27894   0.10944
H          H       0.28776   0.41421   0.25991   0.12911
H          H       0.28821   0.27894   0.17411   0.10942
H          H       0.28776   0.58579   0.74009   0.12909
H          H       0.28821   0.72106   0.82589   0.10944
H          H       0.28791   0.25998   0.58561   0.12884
H          H       0.28806   0.17364   0.72055   0.10904
H          H       0.28791   0.74002   0.41439   0.12883
H          H       0.28806   0.82636   0.27945   0.10904
H          H      -0.00028   0.34255   0.98993   0.14500
H          H       0.99606   0.30440   0.16021   0.15844
H          H      -0.00028   0.65745   0.01007   0.14499
H          H       0.99606   0.69560   0.83979   0.15842
H          H       0.00028   0.01007   0.34255   0.14500
H          H       0.00394   0.83979   0.30440   0.15844
H          H       0.00028   0.98993   0.65745   0.14496
H          H       0.00394   0.16021   0.69561   0.15844
H          H       0.49972   0.65745   0.98993   0.14494
H          H       0.49607   0.69560   0.16021   0.15842
H          H       0.49972   0.34255   0.01007   0.14500
H          H       0.49607   0.30440   0.83979   0.15841
H          H       0.50028   0.98993   0.34255   0.14499
H          H       0.50393   0.16021   0.30440   0.15842
H          H       0.50028   0.01007   0.65745   0.14495
H          H       0.50393   0.83979   0.69560   0.15840
C          C       0.88051   0.38543   0.75982  -0.06800
C          C       0.88090   0.30866   0.80730  -0.12698
C          C       0.88051   0.61457   0.24018  -0.06804
C          C       0.88090   0.69134   0.19270  -0.12698
C          C       0.88053   0.24012   0.38556  -0.06693
C          C       0.88075   0.19230   0.30905  -0.12787
C          C       0.88053   0.75988   0.61444  -0.06696
C          C       0.88075   0.80770   0.69095  -0.12787
C          C       0.61947   0.61444   0.75988  -0.06691
C          C       0.61925   0.69095   0.80770  -0.12791
C          C       0.61947   0.38556   0.24012  -0.06691
C          C       0.61925   0.30905   0.19230  -0.12790
C          C       0.61949   0.75982   0.38543  -0.06798
C          C       0.61910   0.80730   0.30866  -0.12701
C          C       0.61949   0.24018   0.61457  -0.06806
C          C       0.61910   0.19270   0.69134  -0.12699
C          C       0.11947   0.61444   0.24012  -0.06689
C          C       0.11925   0.69095   0.19230  -0.12793
C          C       0.11947   0.38556   0.75988  -0.06700
C          C       0.11925   0.30905   0.80770  -0.12777
C          C       0.11949   0.75982   0.61457  -0.06802
C          C       0.11910   0.80730   0.69134  -0.12698
C          C       0.11949   0.24018   0.38543  -0.06807
C          C       0.11910   0.19270   0.30866  -0.12696
C          C       0.38051   0.38543   0.24018  -0.06802
C          C       0.38089   0.30866   0.19270  -0.12697
C          C       0.38051   0.61457   0.75982  -0.06801
C          C       0.38089   0.69134   0.80730  -0.12701
C          C       0.38053   0.24012   0.61444  -0.06689
C          C       0.38075   0.19230   0.69095  -0.12794
C          C       0.38053   0.75988   0.38556  -0.06689
C          C       0.38075   0.80770   0.30905  -0.12790
C          C      -0.00005   0.42375   0.73690  -0.08061
C          C       0.00016   0.27016   0.83145   0.05310
C          C       0.00059   0.18810   0.88185   0.04099
C          C       0.00406   0.19573   0.97429   0.20566
C          C       0.00116   0.27942   0.02022  -0.17192
C          C      -0.00162   0.26009   0.10577  -0.17755
C          C       0.00184   0.16503   0.11063   0.18496
C          C      -0.00005   0.57626   0.26310  -0.08060
C          C       0.00016   0.72984   0.16855   0.05319
C          C       0.00059   0.81190   0.11815   0.04093
C          C       0.00406   0.80427   0.02571   0.20563
C          C       0.00116   0.72058   0.97978  -0.17188
C          C      -0.00162   0.73991   0.89423  -0.17765
C          C       0.00184   0.83497   0.88937   0.18498
C          C       0.00005   0.26310   0.42375  -0.08054
C          C      -0.00016   0.16855   0.27016   0.05310
C          C      -0.00059   0.11815   0.18810   0.04096
C          C       0.99594   0.02571   0.19573   0.20563
C          C      -0.00116   0.97978   0.27942  -0.17187
C          C       0.00162   0.89423   0.26009  -0.17762
C          C      -0.00184   0.88937   0.16503   0.18501
C          C       0.00005   0.73690   0.57626  -0.08062
C          C      -0.00016   0.83145   0.72984   0.05314
C          C      -0.00059   0.88185   0.81190   0.04094
C          C       0.99594   0.97429   0.80427   0.20567
C          C      -0.00116   0.02022   0.72058  -0.17191
C          C       0.00162   0.10577   0.73991  -0.17759
C          C      -0.00184   0.11063   0.83497   0.18494
C          C       0.49995   0.57626   0.73690  -0.08062
C          C       0.50016   0.72984   0.83145   0.05323
C          C       0.50059   0.81190   0.88185   0.04090
C          C       0.50406   0.80427   0.97429   0.20564
C          C       0.50116   0.72058   0.02022  -0.17186
C          C       0.49838   0.73991   0.10577  -0.17757
C          C       0.50184   0.83497   0.11063   0.18499
C          C       0.49995   0.42375   0.26310  -0.08063
C          C       0.50016   0.27016   0.16855   0.05316
C          C       0.50059   0.18810   0.11815   0.04100
C          C       0.50406   0.19573   0.02571   0.20570
C          C       0.50116   0.27942   0.97978  -0.17191
C          C       0.49838   0.26009   0.89423  -0.17757
C          C       0.50184   0.16503   0.88937   0.18498
C          C       0.50005   0.73690   0.42375  -0.08064
C          C       0.49984   0.83145   0.27016   0.05319
C          C       0.49941   0.88185   0.18810   0.04088
C          C       0.49594   0.97429   0.19573   0.20575
C          C       0.49884   0.02022   0.27942  -0.17192
C          C       0.50162   0.10577   0.26009  -0.17755
C          C       0.49816   0.11063   0.16503   0.18495
C          C       0.50005   0.26310   0.57626  -0.08059
C          C       0.49984   0.16855   0.72984   0.05323
C          C       0.49941   0.11815   0.81190   0.04089
C          C       0.49594   0.02571   0.80427   0.20571
C          C       0.49884   0.97978   0.72058  -0.17184
C          C       0.50162   0.89423   0.73991  -0.17760
C          C       0.49816   0.88937   0.83497   0.18497
S          S      -0.00006   0.52773   0.68685   1.22631
S          S      -0.00006   0.47227   0.31315   1.22636
S          S       0.00006   0.31315   0.52773   1.22630
S          S       0.00006   0.68685   0.47227   1.22635
S          S       0.49994   0.47227   0.68685   1.22630
S          S       0.49994   0.52773   0.31315   1.22640
S          S       0.50006   0.68685   0.52773   1.22632
S          S       0.50006   0.31315   0.47228   1.22637
N          N       0.00802   0.12849   0.02944  -0.25100
N          N       0.00802   0.87151   0.97056  -0.25092
N          N       0.99198   0.97056   0.12849  -0.25099
N          N       0.99198   0.02944   0.87151  -0.25098
N          N       0.50800   0.87151   0.02944  -0.25097
N          N       0.50800   0.12849   0.97056  -0.25103
N          N       0.49200   0.02944   0.12849  -0.25105
N          N       0.49200   0.97056   0.87151  -0.25098
O          O       0.12064   0.53265   0.63266  -0.70394
O          O       0.12064   0.46735   0.36734  -0.70395
O          O       0.12071   0.36739   0.53266  -0.70365
O          O       0.12071   0.63261   0.46734  -0.70370
O          O       0.37929   0.46734   0.63261  -0.70368
O          O       0.37929   0.53266   0.36739  -0.70366
O          O       0.37936   0.63266   0.53265  -0.70394
O          O       0.37936   0.36734   0.46735  -0.70396
O          O       0.87929   0.46734   0.36739  -0.70368
O          O       0.87929   0.53266   0.63261  -0.70369
O          O       0.87936   0.63266   0.46735  -0.70396
O          O       0.87936   0.36734   0.53265  -0.70394
O          O       0.62064   0.53265   0.36734  -0.70395
O          O       0.62064   0.46735   0.63266  -0.70394
O          O       0.62071   0.36739   0.46734  -0.70368
O          O       0.62071   0.63261   0.53266  -0.70369
O          O      -0.00000   0.58952   0.75819  -0.56729
O          O      -0.00000   0.41048   0.24181  -0.56738
O          O       0.00000   0.24181   0.58952  -0.56732
O          O       0.00000   0.75819   0.41048  -0.56732
O          O       0.50000   0.41048   0.75819  -0.56731
O          O       0.50000   0.58952   0.24181  -0.56738
O          O       0.50000   0.75819   0.58952  -0.56729
O          O       0.50000   0.24181   0.41048  -0.56738

