data_crystal

_audit_creation_method 'AiiDA-DDEC plugin'

_cell_length_a         9.94430
_cell_length_b        15.31567
_cell_length_c        15.31579

_cell_angle_alpha     89.99955
_cell_angle_beta     90.00000
_cell_angle_gamma     89.99866

_symmetry_space_group_name_Hall 'P 1'
_symmetry_space_group_name_H-M  'P 1'

loop_
_symmetry_equiv_pos_as_xyz
 'x,y,z'

loop_
_atom_site_label
_atom_site_type_symbol
_atom_site_fract_x
_atom_site_fract_y
_atom_site_fract_z
_atom_site_charge
Gd         Gd      0.74947   0.49998   0.49999   2.29247
Gd         Gd      0.24939   0.49998   0.50000   2.29238
H          H       0.78251   0.58222   0.73749   0.12784
H          H       0.78329   0.71816   0.82456   0.10773
H          H       0.78249   0.41778   0.26251   0.12802
H          H       0.78328   0.28183   0.17544   0.10778
H          H       0.78207   0.26264   0.58178   0.12765
H          H       0.78234   0.17376   0.71654   0.10832
H          H       0.78211   0.73735   0.41823   0.12757
H          H       0.78238   0.82622   0.28348   0.10821
H          H       0.71657   0.41808   0.73713   0.12858
H          H       0.71637   0.28208   0.82399   0.10734
H          H       0.71657   0.58192   0.26288   0.12862
H          H       0.71638   0.71792   0.17602   0.10732
H          H       0.71687   0.73717   0.58140   0.12845
H          H       0.71748   0.82634   0.71593   0.10864
H          H       0.71681   0.26283   0.41863   0.12848
H          H       0.71748   0.17366   0.28409   0.10856
H          H       0.21686   0.41859   0.26284   0.12847
H          H       0.21735   0.28384   0.17398   0.10845
H          H       0.21689   0.58141   0.73716   0.12858
H          H       0.21736   0.71616   0.82602   0.10851
H          H       0.21651   0.73729   0.41814   0.12813
H          H       0.21642   0.82435   0.28222   0.10714
H          H       0.21644   0.26271   0.58184   0.12825
H          H       0.21644   0.17565   0.71778   0.10731
H          H       0.28212   0.58178   0.26265   0.12743
H          H       0.28223   0.71631   0.17344   0.10842
H          H       0.28212   0.41823   0.73735   0.12740
H          H       0.28225   0.28370   0.82656   0.10856
H          H       0.28239   0.26267   0.41773   0.12796
H          H       0.28332   0.17579   0.28171   0.10736
H          H       0.28243   0.73731   0.58228   0.12803
H          H       0.28335   0.82420   0.71829   0.10738
H          H       0.00706   0.83831   0.69427   0.15866
H          H       0.00696   0.01060   0.65487   0.14498
H          H       0.00705   0.16169   0.30574   0.15865
H          H       0.00696   0.98940   0.34513   0.14495
H          H       0.99288   0.30574   0.83832   0.15852
H          H       0.99296   0.34512   0.01060   0.14499
H          H       0.99288   0.69427   0.16168   0.15853
H          H       0.99296   0.65488   0.98940   0.14493
H          H       0.49184   0.16170   0.69472   0.15866
H          H       0.49090   0.98938   0.65549   0.14476
H          H       0.49183   0.83830   0.30529   0.15865
H          H       0.49090   0.01063   0.34453   0.14486
H          H       0.50811   0.69472   0.83830   0.15876
H          H       0.50908   0.65548   0.01062   0.14487
H          H       0.50810   0.30529   0.16171   0.15882
H          H       0.50909   0.34452   0.98938   0.14478
C          C       0.87755   0.61100   0.75739  -0.06693
C          C       0.87821   0.68841   0.80549  -0.12640
C          C       0.87753   0.38899   0.24261  -0.06729
C          C       0.87820   0.31158   0.19451  -0.12612
C          C       0.87699   0.24233   0.61053  -0.06651
C          C       0.87744   0.19311   0.68726  -0.12406
C          C       0.87703   0.75766   0.38949  -0.06635
C          C       0.87747   0.80689   0.31277  -0.12399
C          C       0.62159   0.38934   0.75728  -0.06774
C          C       0.62130   0.31177   0.80509  -0.12468
C          C       0.62159   0.61066   0.24273  -0.06772
C          C       0.62130   0.68824   0.19493  -0.12454
C          C       0.62209   0.75778   0.61014  -0.06598
C          C       0.62215   0.80696   0.68689  -0.12381
C          C       0.62207   0.24221   0.38986  -0.06624
C          C       0.62214   0.19304   0.31311  -0.12387
C          C       0.12209   0.38973   0.24242  -0.06570
C          C       0.12207   0.31297   0.19322  -0.12478
C          C       0.12210   0.61027   0.75758  -0.06563
C          C       0.12208   0.68702   0.80678  -0.12452
C          C       0.12159   0.75730   0.38925  -0.06674
C          C       0.12133   0.80539   0.31182  -0.12474
C          C       0.12156   0.24270   0.61076  -0.06679
C          C       0.12133   0.19462   0.68819  -0.12503
C          C       0.37702   0.61040   0.24214  -0.06691
C          C       0.37740   0.68712   0.19293  -0.12362
C          C       0.37703   0.38961   0.75787  -0.06671
C          C       0.37741   0.31289   0.80708  -0.12397
C          C       0.37749   0.24262   0.38908  -0.06693
C          C       0.37822   0.19481   0.31153  -0.12551
C          C       0.37753   0.75737   0.61091  -0.06725
C          C       0.37825   0.80519   0.68846  -0.12525
C          C      -0.00043   0.57226   0.73385  -0.08289
C          C       0.00035   0.72689   0.83039   0.05378
C          C       0.00050   0.80975   0.88149   0.03601
C          C       0.99137   0.88895   0.83426   0.19320
C          C       0.00014   0.89360   0.73836  -0.17988
C          C      -0.00030   0.97999   0.71848  -0.16895
C          C       0.99082   0.02649   0.80247   0.19640
C          C      -0.00046   0.42773   0.26614  -0.08264
C          C       0.00035   0.27311   0.16961   0.05397
C          C       0.00050   0.19026   0.11851   0.03587
C          C       0.99136   0.11105   0.16574   0.19319
C          C       0.00014   0.10641   0.26164  -0.17981
C          C      -0.00030   0.02001   0.28152  -0.16893
C          C       0.99082   0.97351   0.19753   0.19634
C          C      -0.00077   0.26615   0.57228  -0.08206
C          C      -0.00060   0.16962   0.72690   0.05320
C          C      -0.00044   0.11851   0.80974   0.03567
C          C       0.00866   0.16574   0.88895   0.19358
C          C      -0.00016   0.26164   0.89360  -0.17976
C          C       0.00028   0.28152   0.97999  -0.16890
C          C       0.00918   0.19753   0.02649   0.19593
C          C      -0.00072   0.73384   0.42775  -0.08185
C          C      -0.00059   0.83039   0.27312   0.05300
C          C      -0.00044   0.88149   0.19026   0.03565
C          C       0.00865   0.83426   0.11105   0.19367
C          C      -0.00017   0.73836   0.10640  -0.17982
C          C       0.00027   0.71848   0.02001  -0.16878
C          C       0.00918   0.80247   0.97351   0.19595
C          C       0.49926   0.42791   0.73404  -0.08103
C          C       0.49941   0.27310   0.83032   0.05328
C          C       0.49990   0.19026   0.88154   0.03355
C          C       0.51047   0.11103   0.83450   0.19422
C          C       0.50036   0.10640   0.73869  -0.17993
C          C       0.50051   0.02003   0.71888  -0.16802
C          C       0.51047   0.97347   0.80267   0.19600
C          C       0.49925   0.57210   0.26598  -0.08099
C          C       0.49940   0.72692   0.16970   0.05302
C          C       0.49990   0.80975   0.11847   0.03377
C          C       0.51047   0.88897   0.16551   0.19401
C          C       0.50035   0.89361   0.26132  -0.17987
C          C       0.50051   0.97997   0.28113  -0.16792
C          C       0.51047   0.02653   0.19734   0.19564
C          C       0.49959   0.73405   0.57208  -0.08266
C          C       0.50035   0.83031   0.72691   0.05307
C          C       0.50016   0.88153   0.80975   0.03428
C          C       0.48958   0.83450   0.88897   0.19390
C          C       0.49965   0.73869   0.89361  -0.18017
C          C       0.49951   0.71888   0.97997  -0.16793
C          C       0.48959   0.80268   0.02653   0.19597
C          C       0.49955   0.26592   0.42790  -0.08242
C          C       0.50034   0.16970   0.27310   0.05337
C          C       0.50016   0.11848   0.19027   0.03443
C          C       0.48958   0.16551   0.11104   0.19364
C          C       0.49965   0.26132   0.10640  -0.18010
C          C       0.49951   0.28112   0.02004  -0.16784
C          C       0.48959   0.19733   0.97348   0.19622
S          S      -0.00138   0.46749   0.68245   1.24174
S          S      -0.00138   0.53250   0.31752   1.24285
S          S      -0.00132   0.31753   0.46751   1.24263
S          S      -0.00125   0.68241   0.53251   1.24167
S          S       0.49873   0.53246   0.68243   1.24219
S          S       0.49870   0.46756   0.31759   1.24196
S          S       0.49863   0.68245   0.46754   1.24246
S          S       0.49858   0.31747   0.53246   1.24270
N          N       0.97918   0.96993   0.87085  -0.24713
N          N       0.97918   0.03008   0.12916  -0.24702
N          N       0.02090   0.12916   0.96992  -0.24683
N          N       0.02089   0.87084   0.03008  -0.24685
N          N       0.52369   0.03005   0.87100  -0.24746
N          N       0.52369   0.96996   0.12901  -0.24722
N          N       0.47642   0.87101   0.96996  -0.24721
N          N       0.47642   0.12900   0.03006  -0.24728
O          O       0.87408   0.46218   0.62855  -0.72230
O          O       0.87395   0.53780   0.37134  -0.72276
O          O       0.87399   0.37133   0.46226  -0.72317
O          O       0.87423   0.62843   0.53777  -0.72301
O          O       0.62136   0.53773   0.62702  -0.72115
O          O       0.62135   0.46228   0.37298  -0.72106
O          O       0.62119   0.62694   0.46224  -0.72161
O          O       0.62101   0.37311   0.53773  -0.72161
O          O       0.12112   0.53789   0.37305  -0.72153
O          O       0.12122   0.46210   0.62697  -0.72137
O          O       0.12136   0.62698   0.53796  -0.72121
O          O       0.12117   0.37306   0.46208  -0.72134
O          O       0.37416   0.46238   0.37144  -0.72266
O          O       0.37416   0.53762   0.62855  -0.72306
O          O       0.37373   0.37102   0.53757  -0.72233
O          O       0.37397   0.62872   0.46240  -0.72237
O          O      -0.00012   0.40473   0.75440  -0.56425
O          O      -0.00010   0.59527   0.24558  -0.56470
O          O      -0.00003   0.24560   0.40474  -0.56463
O          O      -0.00009   0.75436   0.59526  -0.56403
O          O       0.49991   0.59536   0.75426  -0.56461
O          O       0.49991   0.40463   0.24574  -0.56489
O          O       0.49993   0.75428   0.40464  -0.56470
O          O       0.50001   0.24569   0.59538  -0.56488

