data_crystal

_audit_creation_method 'AiiDA-DDEC plugin'

_cell_length_a         7.64092
_cell_length_b        17.77844
_cell_length_c        23.89003

_cell_angle_alpha     93.40612
_cell_angle_beta     90.00000
_cell_angle_gamma     90.00000

_symmetry_space_group_name_Hall 'P 1'
_symmetry_space_group_name_H-M  'P 1'

loop_
_symmetry_equiv_pos_as_xyz
 'x,y,z'

loop_
_atom_site_label
_atom_site_type_symbol
_atom_site_fract_x
_atom_site_fract_y
_atom_site_fract_z
_atom_site_charge
Zn         Zn      0.49510   0.43029   0.96516   0.99362
Zn         Zn      0.79196   0.49863   0.91537   0.97993
Zn         Zn      0.49510   0.06970   0.53484   0.99346
Zn         Zn      0.79196   0.00136   0.58464   0.97985
Zn         Zn      0.50489   0.56971   0.03484   0.99349
Zn         Zn      0.20803   0.50137   0.08464   0.97981
Zn         Zn      0.50489   0.93030   0.46516   0.99349
Zn         Zn      0.20803  -0.00136   0.41536   0.97993
H          H       0.03270   0.60456   0.78336   0.11715
H          H       0.22747   0.67621   0.72300   0.11711
H          H       0.58002   0.71659   0.86282   0.11855
H          H       0.57477   0.99207   0.74116   0.12008
H          H       0.43571   0.98905   0.83369   0.10678
H          H       0.97653   0.09558   0.76868   0.11961
H          H       0.11616   0.09468   0.67497   0.12130
H          H       0.24046   0.18042   0.85626   0.11819
H          H       0.11715   0.30587   0.88419   0.12414
H          H       0.63787   0.20140   0.93329   0.12304
H          H       0.76221   0.07618   0.90917   0.11164
H          H       0.38078   0.64618   0.92259   0.11518
H          H       0.03270   0.89543   0.71664   0.11721
H          H       0.22747   0.82379   0.77700   0.11728
H          H       0.58002   0.78341   0.63718   0.11843
H          H       0.57477   0.50793   0.75885   0.11997
H          H       0.43571   0.51095   0.66631   0.10648
H          H       0.97653   0.40441   0.73132   0.11970
H          H       0.11616   0.40532   0.82504   0.12167
H          H       0.24046   0.31958   0.64375   0.11827
H          H       0.11715   0.19412   0.61581   0.12430
H          H       0.63787   0.29859   0.56672   0.12283
H          H       0.76221   0.42382   0.59083   0.11144
H          H       0.38078   0.85382   0.57741   0.11502
H          H       0.96730   0.39543   0.21664   0.11714
H          H       0.77252   0.32379   0.27700   0.11721
H          H       0.41998   0.28341   0.13718   0.11856
H          H       0.42522   0.00793   0.25885   0.12008
H          H       0.56429   0.01095   0.16631   0.10664
H          H       0.02347   0.90441   0.23132   0.11959
H          H       0.88384   0.90532   0.32504   0.12139
H          H       0.75953   0.81958   0.14375   0.11831
H          H       0.88284   0.69413   0.11581   0.12423
H          H       0.36213   0.79859   0.06672   0.12285
H          H       0.23779   0.92382   0.09083   0.11150
H          H       0.61922   0.35382   0.07741   0.11507
H          H       0.96730   0.10456   0.28336   0.11712
H          H       0.77252   0.17621   0.22300   0.11719
H          H       0.41998   0.21659   0.36282   0.11855
H          H       0.42522   0.49207   0.24116   0.12011
H          H       0.56429   0.48905   0.33369   0.10670
H          H       0.02347   0.59559   0.26868   0.11961
H          H       0.88384   0.59468   0.17497   0.12137
H          H       0.75953   0.68042   0.35626   0.11831
H          H       0.88284   0.80588   0.38419   0.12429
H          H       0.36213   0.70141   0.43328   0.12284
H          H       0.23779   0.57618   0.40917   0.11149
H          H       0.61922   0.14618   0.42259   0.11513
C          C       0.79275   0.33754   0.92504   0.59589
C          C       0.06886   0.58224   0.89229   0.54130
C          C       0.19260   0.62313   0.85685  -0.03084
C          C       0.15185   0.63030   0.80025  -0.08120
C          C       0.26227   0.67049   0.76660  -0.12492
C          C       0.41520   0.70438   0.78905   0.08531
C          C       0.45985   0.69350   0.84494  -0.13326
C          C       0.64784   0.80824   0.78355   0.68539
C          C       0.44794   0.04573   0.64782   0.57510
C          C       0.35648   0.04490   0.70293  -0.03727
C          C       0.44417   0.01495   0.74791  -0.07511
C          C       0.36443   0.01372   0.80019  -0.14872
C          C       0.19615   0.04364   0.80847   0.08456
C          C       0.10786   0.07302   0.76296  -0.12884
C          C       0.18643   0.07334   0.71033  -0.07652
C          C       0.09866   0.04190   0.86470  -0.26525
C          C       0.96192   0.97683   0.85727   0.68439
C          C       0.22294   0.02441   0.91458   0.68959
C          C       0.01127   0.11857   0.88036   0.08825
C          C       0.10905   0.18444   0.87353  -0.13244
C          C       0.03982   0.25518   0.88881  -0.07870
C          C       0.86923   0.26151   0.91052  -0.03558
C          C       0.77063   0.19620   0.91704  -0.07800
C          C       0.84162   0.12541   0.90263  -0.14199
C          C       0.34886   0.65345   0.87885  -0.06252
C          C       0.79275   0.16246   0.57497   0.59580
C          C       0.06886   0.91775   0.60771   0.54114
C          C       0.19260   0.87687   0.64315  -0.03093
C          C       0.15185   0.86970   0.69975  -0.08119
C          C       0.26228   0.82951   0.73340  -0.12465
C          C       0.41520   0.79561   0.71095   0.08533
C          C       0.45985   0.80650   0.65507  -0.13323
C          C       0.64784   0.69176   0.71645   0.68558
C          C       0.44794   0.45427   0.85219   0.57497
C          C       0.35648   0.45510   0.79707  -0.03745
C          C       0.44417   0.48504   0.75210  -0.07483
C          C       0.36443   0.48627   0.69982  -0.14885
C          C       0.19615   0.45636   0.69154   0.08470
C          C       0.10786   0.42698   0.73704  -0.12902
C          C       0.18643   0.42666   0.78967  -0.07635
C          C       0.09866   0.45809   0.63530  -0.26529
C          C       0.96192   0.52317   0.64273   0.68464
C          C       0.22294   0.47558   0.58543   0.68970
C          C       0.01127   0.38143   0.61965   0.08818
C          C       0.10905   0.31555   0.62647  -0.13239
C          C       0.03982   0.24482   0.61119  -0.07846
C          C       0.86923   0.23848   0.58949  -0.03587
C          C       0.77063   0.30380   0.58296  -0.07774
C          C       0.84162   0.37459   0.59738  -0.14210
C          C       0.34886   0.84655   0.62115  -0.06267
C          C       0.20725   0.66246   0.07496   0.59591
C          C       0.93113   0.41775   0.10771   0.54110
C          C       0.80740   0.37687   0.14315  -0.03072
C          C       0.84815   0.36970   0.19975  -0.08132
C          C       0.73772   0.32951   0.23340  -0.12475
C          C       0.58479   0.29561   0.21095   0.08520
C          C       0.54015   0.30650   0.15506  -0.13324
C          C       0.35215   0.19176   0.21645   0.68553
C          C       0.55206   0.95427   0.35219   0.57495
C          C       0.64352   0.95510   0.29707  -0.03744
C          C       0.55583   0.98505   0.25210  -0.07474
C          C       0.63556   0.98627   0.19981  -0.14884
C          C       0.80384   0.95636   0.19153   0.08471
C          C       0.89214   0.92698   0.23704  -0.12896
C          C       0.81356   0.92666   0.28967  -0.07638
C          C       0.90134   0.95809   0.13530  -0.26525
C          C       0.03807   0.02317   0.14273   0.68451
C          C       0.77706   0.97558   0.08542   0.68952
C          C       0.98873   0.88143   0.11964   0.08811
C          C       0.89094   0.81556   0.12647  -0.13241
C          C       0.96018   0.74482   0.11119  -0.07851
C          C       0.13077   0.73849   0.08949  -0.03569
C          C       0.22937   0.80380   0.08296  -0.07799
C          C       0.15838   0.87459   0.09738  -0.14197
C          C       0.65114   0.34655   0.12115  -0.06265
C          C       0.20725   0.83754   0.42504   0.59579
C          C       0.93113   0.08225   0.39229   0.54117
C          C       0.80740   0.12313   0.35685  -0.03070
C          C       0.84815   0.13030   0.30025  -0.08123
C          C       0.73772   0.17049   0.26660  -0.12500
C          C       0.58479   0.20439   0.28905   0.08532
C          C       0.54015   0.19350   0.34494  -0.13320
C          C       0.35215   0.30824   0.28355   0.68545
C          C       0.55206   0.54573   0.14781   0.57502
C          C       0.64352   0.54490   0.20293  -0.03733
C          C       0.55583   0.51495   0.24790  -0.07498
C          C       0.63556   0.51373   0.30019  -0.14883
C          C       0.80384   0.54364   0.30847   0.08473
C          C       0.89214   0.57302   0.26296  -0.12894
C          C       0.81357   0.57334   0.21033  -0.07645
C          C       0.90134   0.54191   0.36470  -0.26531
C          C       0.03807   0.47683   0.35727   0.68443
C          C       0.77706   0.52442   0.41458   0.68941
C          C       0.98873   0.61857   0.38036   0.08820
C          C       0.89094   0.68445   0.37353  -0.13248
C          C       0.96018   0.75518   0.38881  -0.07848
C          C       0.13076   0.76151   0.41051  -0.03576
C          C       0.22937   0.69620   0.41704  -0.07780
C          C       0.15838   0.62541   0.40262  -0.14210
C          C       0.65114   0.15345   0.37885  -0.06259
C          C       0.52906   0.75000   0.75000  -0.26536
C          C       0.47094   0.25000   0.25000  -0.26510
O          O       0.64582   0.34009   0.95142  -0.53168
O          O       0.88005   0.39391   0.90979  -0.52072
O          O       0.92383   0.56120   0.86750  -0.50269
O          O       0.10066   0.56813   0.94219  -0.44092
O          O       0.59972   0.01657   0.64525  -0.52038
O          O       0.36728   0.07557   0.60757  -0.51432
O          O       0.64080   0.52506   0.97585  -0.80281
O          O       0.64582   0.15990   0.54859  -0.53196
O          O       0.88005   0.10609   0.59021  -0.52033
O          O       0.92383   0.93879   0.63251  -0.50222
O          O       0.10066   0.93186   0.55781  -0.44134
O          O       0.59972   0.48342   0.85475  -0.52058
O          O       0.36728   0.42442   0.89244  -0.51395
O          O       0.64080   0.97494   0.52415  -0.80273
O          O       0.35417   0.65991   0.04859  -0.53192
O          O       0.11995   0.60609   0.09021  -0.52045
O          O       0.07616   0.43880   0.13250  -0.50252
O          O       0.89934   0.43186   0.05781  -0.44107
O          O       0.40028   0.98343   0.35475  -0.52038
O          O       0.63271   0.92443   0.39244  -0.51415
O          O       0.35919   0.47494   0.02415  -0.80275
O          O       0.35417   0.84009   0.45141  -0.53190
O          O       0.11995   0.89391   0.40979  -0.52038
O          O       0.07617   0.06120   0.36750  -0.50264
O          O       0.89933   0.06813   0.44219  -0.44100
O          O       0.40028   0.51657   0.14525  -0.52036
O          O       0.63271   0.57557   0.10756  -0.51420
O          O       0.35919   0.02506   0.47585  -0.80271
F          F       0.55261   0.84794   0.82383  -0.19896
F          F       0.78319   0.77344   0.80944  -0.20803
F          F       0.71717   0.85990   0.75019  -0.19468
F          F       0.82609   0.99624   0.82382  -0.20145
F          F       0.03335   0.91300   0.83254  -0.20236
F          F       0.89133   0.95801   0.90667  -0.20136
F          F       0.36547   0.07145   0.91512  -0.20382
F          F       0.28393   0.95208   0.91172  -0.20558
F          F       0.14183   0.03467   0.96500  -0.20221
F          F       0.55261   0.65206   0.67618  -0.19919
F          F       0.78319   0.72655   0.69057  -0.20829
F          F       0.71717   0.64010   0.74982  -0.19445
F          F       0.82609   0.50376   0.67618  -0.20125
F          F       0.03335   0.58700   0.66746  -0.20240
F          F       0.89133   0.54199   0.59333  -0.20184
F          F       0.36547   0.42854   0.58489  -0.20369
F          F       0.28393   0.54792   0.58829  -0.20583
F          F       0.14183   0.46533   0.53501  -0.20257
F          F       0.44738   0.15206   0.17617  -0.19916
F          F       0.21681   0.22655   0.19057  -0.20814
F          F       0.28283   0.14010   0.24981  -0.19454
F          F       0.17390   0.00376   0.17618  -0.20137
F          F       0.96665   0.08700   0.16746  -0.20229
F          F       0.10866   0.04199   0.09333  -0.20174
F          F       0.63453   0.92855   0.08489  -0.20365
F          F       0.71607   0.04792   0.08829  -0.20559
F          F       0.85817   0.96533   0.03500  -0.20245
F          F       0.44738   0.34794   0.32383  -0.19911
F          F       0.21681   0.27345   0.30944  -0.20803
F          F       0.28283   0.35990   0.25019  -0.19459
F          F       0.17390   0.49624   0.32382  -0.20146
F          F       0.96665   0.41300   0.33254  -0.20231
F          F       0.10866   0.45801   0.40667  -0.20158
F          F       0.63453   0.57146   0.41512  -0.20356
F          F       0.71607   0.45208   0.41171  -0.20560
F          F       0.85817   0.53467   0.46500  -0.20233

