data_crystal

_audit_creation_method 'AiiDA-DDEC plugin'

_cell_length_a        15.74578
_cell_length_b        17.80769
_cell_length_c        18.61811

_cell_angle_alpha     88.71736
_cell_angle_beta     84.34898
_cell_angle_gamma     80.01080

_symmetry_space_group_name_Hall 'P 1'
_symmetry_space_group_name_H-M  'P 1'

loop_
_symmetry_equiv_pos_as_xyz
 'x,y,z'

loop_
_atom_site_label
_atom_site_type_symbol
_atom_site_fract_x
_atom_site_fract_y
_atom_site_fract_z
_atom_site_charge
Na         Na      0.07924   0.05331   0.00733   0.92190
Na         Na      0.92072   0.94666   0.99276   0.92329
Zn         Zn      0.52719   0.50048   0.18843   0.62305
Zn         Zn      0.47300   0.49966   0.81089   0.62333
H          H       0.62707   0.20110   0.16082   0.13657
H          H       0.45302   0.22361   0.16168   0.13817
H          H       0.20357   0.46520   0.16502   0.13686
H          H       0.19784   0.61753   0.15989   0.13979
H          H       0.43210   0.79937   0.18164   0.13791
H          H       0.60405   0.77606   0.19148   0.14004
H          H       0.85819   0.53388   0.16676   0.13812
H          H       0.86402   0.38234   0.15784   0.14122
H          H       0.73532   0.24921   0.04937   0.10868
H          H       0.84495   0.12989   0.03893   0.11052
H          H       0.91367   0.16287   0.25197   0.13492
H          H       0.80565   0.28363   0.26231   0.11909
H          H       0.30004   0.35989   0.04840   0.11074
H          H       0.19300   0.27405   0.03486   0.10890
H          H       0.19828   0.20902   0.25697   0.12195
H          H       0.30826   0.29250   0.27130   0.11639
H          H       0.35764   0.76876   0.06323   0.11633
H          H       0.24097   0.88147   0.05480   0.12241
H          H       0.10832   0.81625   0.25235   0.13279
H          H       0.22375   0.70324   0.26187   0.12063
H          H       0.70429   0.71462   0.07164   0.10880
H          H       0.81633   0.79968   0.05269   0.12203
H          H       0.91200   0.72402   0.25395   0.12113
H          H       0.80525   0.63434   0.27136   0.11739
H          H       0.37350   0.79886   0.83923   0.13694
H          H       0.54761   0.77614   0.83850   0.13810
H          H       0.79671   0.53476   0.83450   0.13797
H          H       0.80215   0.38251   0.84054   0.13942
H          H       0.56824   0.20124   0.81811   0.13793
H          H       0.39648   0.22380   0.80713   0.14084
H          H       0.14182   0.46643   0.83272   0.13799
H          H       0.13674   0.61789   0.84212   0.14130
H          H       0.26524   0.74995   0.95108   0.10949
H          H       0.15656   0.86941   0.96159   0.11107
H          H       0.08743   0.83732   0.74817   0.13502
H          H       0.19439   0.71580   0.73816   0.11867
H          H       0.70078   0.63936   0.95121   0.11049
H          H       0.80646   0.72634   0.96542   0.10945
H          H       0.80144   0.79119   0.74285   0.12209
H          H       0.69266   0.70646   0.72848   0.11625
H          H       0.64065   0.23265   0.93663   0.11554
H          H       0.75685   0.12015   0.94664   0.11822
H          H       0.89197   0.18565   0.74981   0.13125
H          H       0.77602   0.29788   0.73947   0.11835
H          H       0.29758   0.28614   0.92852   0.10893
H          H       0.18712   0.19945   0.94913   0.12285
H          H       0.08690   0.27418   0.74905   0.12140
H          H       0.19335   0.36387   0.72917   0.11838
C          C       0.71850   0.41372   0.17199   0.17419
C          C       0.69313   0.34218   0.16549  -0.02178
C          C       0.60686   0.32947   0.16490   0.17358
C          C       0.58263   0.25485   0.16237  -0.17831
C          C       0.49439   0.26609   0.16310  -0.17115
C          C       0.46446   0.34740   0.16686   0.16621
C          C       0.37681   0.38244   0.16751  -0.01427
C          C       0.34622   0.46187   0.16951   0.16589
C          C       0.25665   0.49632   0.16628  -0.16743
C          C       0.25380   0.57354   0.16443  -0.17966
C          C       0.34146   0.58650   0.16847   0.17392
C          C       0.36701   0.65903   0.16748  -0.02422
C          C       0.45302   0.67168   0.17043   0.17378
C          C       0.47669   0.74570   0.17848  -0.17722
C          C       0.56415   0.73387   0.18327  -0.17450
C          C       0.59447   0.65263   0.17745   0.17120
C          C       0.68228   0.61748   0.17935  -0.02214
C          C       0.71360   0.53783   0.17925   0.17229
C          C       0.80422   0.50329   0.17106  -0.17886
C          C       0.80723   0.42629   0.16643  -0.17335
C          C       0.76205   0.27360   0.15742   0.07914
C          C       0.77388   0.23025   0.09393  -0.13464
C          C       0.83450   0.16339   0.08802  -0.09275
C          C       0.88311   0.13728   0.14582  -0.02382
C          C       0.87409   0.18163   0.20818  -0.07806
C          C       0.81437   0.24963   0.21348  -0.13489
C          C       0.94157   0.06064   0.13494   0.54263
C          C       0.31177   0.33167   0.16074   0.06611
C          C       0.27851   0.32631   0.09404  -0.14648
C          C       0.21909   0.27796   0.08625  -0.09848
C          C       0.19065   0.23462   0.14453  -0.02721
C          C       0.22214   0.24154   0.21149  -0.09588
C          C       0.28292   0.28867   0.21946  -0.14756
C          C       0.12825   0.18047   0.13545   0.54218
C          C       0.29836   0.72729   0.16303   0.08021
C          C       0.30309   0.77866   0.10468  -0.14270
C          C       0.23774   0.84145   0.09943  -0.09528
C          C       0.16675   0.85552   0.15214  -0.01782
C          C       0.16251   0.80557   0.21108  -0.06957
C          C       0.22738   0.74196   0.21604  -0.13929
C          C       0.10292   0.92737   0.14144   0.51938
C          C       0.74709   0.66891   0.17279   0.06950
C          C       0.74978   0.71673   0.11152  -0.13289
C          C       0.81134   0.76407   0.10076  -0.09740
C          C       0.86969   0.76662   0.15240  -0.01099
C          C       0.86680   0.72029   0.21414  -0.10107
C          C       0.80694   0.67079   0.22379  -0.13677
C          C       0.93338   0.82141   0.13964   0.55969
C          C       0.46103   0.46980   0.35047   0.15962
C          C       0.45004   0.46522   0.41888  -0.20333
C          C       0.50282   0.50050   0.46076   0.16734
C          C       0.56206   0.53691   0.41569  -0.19636
C          C       0.56169   0.53418   0.34752   0.15491
C          C       0.28210   0.58606   0.82744   0.17142
C          C       0.30744   0.65753   0.83440  -0.02183
C          C       0.39366   0.67044   0.83495   0.17444
C          C       0.41788   0.74508   0.83759  -0.17652
C          C       0.50612   0.73380   0.83686  -0.17152
C          C       0.53602   0.65252   0.83290   0.16659
C          C       0.62367   0.61757   0.83222  -0.01583
C          C       0.65414   0.53823   0.83015   0.16704
C          C       0.74361   0.50363   0.83347  -0.16929
C          C       0.74620   0.42647   0.83573  -0.17890
C          C       0.65838   0.41385   0.83165   0.17427
C          C       0.63238   0.34163   0.83264  -0.02337
C          C       0.54650   0.32887   0.82947   0.17256
C          C       0.52334   0.25473   0.82115  -0.17801
C          C       0.43598   0.26620   0.81584  -0.17439
C          C       0.40526   0.34739   0.82189   0.16816
C          C       0.31738   0.38237   0.82010  -0.02236
C          C       0.28641   0.46209   0.81978   0.17215
C          C       0.19591   0.49689   0.82822  -0.17897
C          C       0.19329   0.57380   0.83317  -0.17207
C          C       0.23850   0.72602   0.84269   0.07998
C          C       0.22723   0.76924   0.90624  -0.13622
C          C       0.16704   0.83628   0.91227  -0.09112
C          C       0.11807   0.86271   0.85483  -0.02043
C          C       0.12694   0.81874   0.79208  -0.07810
C          C       0.18615   0.75037   0.78669  -0.13548
C          C       0.05854   0.93876   0.86712   0.54891
C          C       0.68861   0.66828   0.83917   0.06572
C          C       0.72166   0.67372   0.90592  -0.14427
C          C       0.78069   0.72242   0.91385  -0.09932
C          C       0.80900   0.76573   0.85544  -0.02686
C          C       0.77774   0.75866   0.78840  -0.09545
C          C       0.71734   0.71121   0.78042  -0.14738
C          C       0.87199   0.81938   0.86394   0.54036
C          C       0.70096   0.27367   0.83761   0.08074
C          C       0.69587   0.22255   0.89595  -0.14151
C          C       0.76080   0.15952   0.90155  -0.09304
C          C       0.83195   0.14495   0.84903  -0.01729
C          C       0.83714   0.19552   0.79053  -0.06749
C          C       0.77243   0.25915   0.78525  -0.13856
C          C       0.89516   0.07233   0.85908   0.51706
C          C       0.25272   0.33075   0.82762   0.07089
C          C       0.25119   0.28339   0.88939  -0.13255
C          C       0.19058   0.23511   0.90091  -0.09523
C          C       0.13183   0.23152   0.84971  -0.00902
C          C       0.13280   0.27827   0.78814  -0.10275
C          C       0.19207   0.32823   0.77738  -0.13740
C          C       0.07011   0.17498   0.86142   0.55694
C          C       0.53930   0.53045   0.64911   0.15682
C          C       0.54993   0.53488   0.58059  -0.20134
C          C       0.49699   0.49953   0.53896   0.16744
C          C       0.43788   0.46320   0.58418  -0.19776
C          C       0.43860   0.46607   0.65237   0.15646
N          N       0.53395   0.38503   0.16782  -0.33884
N          N       0.39660   0.51765   0.17137  -0.34059
N          N       0.52578   0.61583   0.17014  -0.34545
N          N       0.66276   0.48247   0.17965  -0.34254
N          N       0.51461   0.50233   0.30496  -0.17956
N          N       0.46655   0.61491   0.83181  -0.33910
N          N       0.60350   0.48268   0.82851  -0.34044
N          N       0.47365   0.38449   0.82954  -0.34263
N          N       0.33757   0.51728   0.81920  -0.34048
N          N       0.48585   0.49791   0.69472  -0.18013
O          O       0.94988   0.03091   0.07433  -0.62522
O          O       0.97703   0.03282   0.19256  -0.19040
O          O       0.11770   0.16046   0.07184  -0.56478
O          O       0.08857   0.15647   0.19134  -0.45241
O          O       0.12568   0.97618   0.09943  -0.53323
O          O       0.02461   0.93304   0.17943  -0.11817
O          O       0.92167   0.86924   0.08966  -0.59836
O          O       0.99359   0.81346   0.18202  -0.43052
O          O       0.04925   0.96710   0.92835  -0.62849
O          O       0.02297   0.96679   0.80988  -0.19504
O          O       0.88303   0.83991   0.92723  -0.55654
O          O       0.91214   0.84224   0.80770  -0.44861
O          O       0.87165   0.02251   0.89968  -0.53535
O          O       0.97389   0.06713   0.82200  -0.11999
O          O       0.08802   0.12204   0.90594  -0.59778
O          O       0.00525   0.18666   0.82383  -0.42818

