data_crystal

_audit_creation_method 'AiiDA-DDEC plugin'

_cell_length_a        15.33806
_cell_length_b        15.35467
_cell_length_c        16.05125

_cell_angle_alpha     98.79491
_cell_angle_beta     102.19520
_cell_angle_gamma     103.17828

_symmetry_space_group_name_Hall 'P 1'
_symmetry_space_group_name_H-M  'P 1'

loop_
_symmetry_equiv_pos_as_xyz
 'x,y,z'

loop_
_atom_site_label
_atom_site_type_symbol
_atom_site_fract_x
_atom_site_fract_y
_atom_site_fract_z
_atom_site_charge
Zn         Zn      0.38506   0.82876   0.39496   0.83422
Zn         Zn      0.33538   0.78610   0.20956   0.83834
Zn         Zn      0.61494   0.17124   0.60503   0.83417
Zn         Zn      0.66461   0.21389   0.79044   0.83830
H          H       0.39047   0.11845   0.44921   0.11575
H          H       0.38094   0.27616   0.44568   0.11130
H          H       0.37072   0.22611   0.17141   0.10356
H          H       0.37188   0.06493   0.17512   0.11722
H          H       0.04435   0.80024   0.15175   0.12088
H          H       0.89057   0.82024   0.16021   0.10481
H          H       0.95999   0.81724   0.43441   0.10649
H          H       0.11548   0.80347   0.42489   0.12051
H          H       0.28354   0.48539   0.16578   0.11629
H          H       0.29129   0.32608   0.16977   0.10733
H          H       0.44213   0.41496   0.44033   0.10505
H          H       0.42903   0.57231   0.43562   0.10497
H          H       0.59911   0.78884   0.17435   0.11667
H          H       0.75645   0.78286   0.16442   0.10461
H          H       0.85482   0.87432   0.44382   0.10900
H          H       0.69653   0.87560   0.45223   0.11410
H          H       0.38704   0.70663   0.52149   0.10691
H          H       0.39121   0.71517   0.67953   0.12472
H          H       0.40203   0.00172   0.70151   0.12815
H          H       0.39902   0.98166   0.54228   0.11540
H          H       0.44827   0.89801   0.12455   0.11076
H          H       0.46542   0.91510   0.97706   0.14682
H          H       0.23445   0.67358   0.87117   0.13686
H          H       0.22716   0.66642   0.02375   0.11529
H          H       0.31172   0.74746   0.77821   0.29170
H          H       0.60952   0.88154   0.55078   0.11578
H          H       0.61905   0.72383   0.55432   0.11145
H          H       0.62927   0.77388   0.82859   0.10361
H          H       0.62811   0.93507   0.82488   0.11701
H          H       0.95564   0.19975   0.84824   0.12089
H          H       0.10942   0.17975   0.83978   0.10469
H          H       0.04000   0.18275   0.56559   0.10648
H          H       0.88451   0.19652   0.57511   0.12064
H          H       0.71645   0.51460   0.83422   0.11615
H          H       0.70870   0.67391   0.83022   0.10571
H          H       0.55786   0.58503   0.55966   0.10515
H          H       0.57096   0.42768   0.56437   0.10531
H          H       0.40088   0.21116   0.82564   0.11645
H          H       0.24354   0.21713   0.83557   0.10447
H          H       0.14517   0.12568   0.55618   0.10930
H          H       0.30346   0.12439   0.54777   0.11412
H          H       0.61296   0.29336   0.47850   0.10665
H          H       0.60878   0.28482   0.32046   0.12461
H          H       0.59796  -0.00173   0.29848   0.12841
H          H       0.60097   0.01833   0.45771   0.11554
H          H       0.55172   0.10199   0.87545   0.11099
H          H       0.53458   0.08489   0.02294   0.14702
H          H       0.76555   0.32641   0.12883   0.13651
H          H       0.77284   0.33357   0.97624   0.11507
H          H       0.68827   0.25253   0.22179   0.29133
C          C       0.37787   0.98338   0.31287   0.57543
C          C       0.37873   0.08088   0.31165  -0.04326
C          C       0.38367   0.14179   0.38809  -0.09264
C          C       0.38027   0.23134   0.38597  -0.14052
C          C       0.37386   0.26351   0.30783   0.06132
C          C       0.37238   0.20237   0.23203  -0.15069
C          C       0.37372   0.11230   0.23363  -0.09155
C          C       0.18355   0.79095   0.28338   0.58515
C          C       0.08918   0.79948   0.28757  -0.03509
C          C       0.02476   0.80406   0.21321  -0.09766
C          C       0.93821   0.81476   0.21859  -0.14490
C          C       0.91207   0.81955   0.29800   0.06293
C          C       0.97774   0.81498   0.37218  -0.14569
C          C       0.06483   0.80596   0.36727  -0.09633
C          C       0.35065   0.63501   0.29827   0.58546
C          C       0.35542   0.53884   0.30044  -0.03521
C          C       0.31775   0.46879   0.22549  -0.09287
C          C       0.32341   0.37989   0.22803  -0.14113
C          C       0.36805   0.35802   0.30519   0.06414
C          C       0.40609   0.42915   0.38001  -0.14969
C          C       0.39937   0.51768   0.37776  -0.09783
C          C       0.53992   0.82956   0.31752   0.57232
C          C       0.63715   0.83155   0.31372  -0.04842
C          C       0.65596   0.80716   0.23279  -0.09070
C          C       0.74477   0.80458   0.22787  -0.14509
C          C       0.81870   0.82698   0.30341   0.06770
C          C       0.79944   0.85409   0.38410  -0.14003
C          C       0.71032   0.85584   0.38931  -0.09613
C          C       0.38883   0.76981   0.56403   0.10336
C          C       0.38953   0.77520   0.65153  -0.17678
C          C       0.39356   0.85962   0.70203  -0.00304
C          C       0.39702   0.93527   0.66293  -0.12911
C          C       0.39524   0.92430   0.57493   0.10991
C          C       0.40105   0.87509   0.79789   0.47822
C          C       0.40245   0.84953   0.06678   0.11846
C          C       0.41211   0.85917   0.98440  -0.22942
C          C       0.35089   0.79585   0.91138   0.27609
C          C       0.28342   0.72458   0.92556  -0.25421
C          C       0.27885   0.72027   0.01041   0.09856
C          C       0.62212   0.01662   0.68713   0.57554
C          C       0.62126   0.91911   0.68835  -0.04312
C          C       0.61632   0.85820   0.61191  -0.09271
C          C       0.61972   0.76865   0.61403  -0.14064
C          C       0.62613   0.73648   0.69216   0.06150
C          C       0.62761   0.79762   0.76796  -0.15044
C          C       0.62627   0.88769   0.76637  -0.09174
C          C       0.81644   0.20904   0.71661   0.58492
C          C       0.91081   0.20052   0.71243  -0.03493
C          C       0.97523   0.19594   0.78679  -0.09794
C          C       0.06178   0.18524   0.78140  -0.14480
C          C       0.08793   0.18044   0.70200   0.06288
C          C       0.02226   0.18501   0.62781  -0.14575
C          C       0.93516   0.19403   0.63272  -0.09614
C          C       0.64934   0.36498   0.70172   0.58523
C          C       0.64457   0.46116   0.69955  -0.03503
C          C       0.68224   0.53121   0.77450  -0.09274
C          C       0.67658   0.62010   0.77197  -0.14016
C          C       0.63194   0.64198   0.69480   0.06402
C          C       0.59390   0.57084   0.61999  -0.14958
C          C       0.60062   0.48231   0.62223  -0.09789
C          C       0.46008   0.17043   0.68248   0.57268
C          C       0.36285   0.16844   0.68628  -0.04849
C          C       0.34403   0.19283   0.76721  -0.09080
C          C       0.25522   0.19541   0.77213  -0.14510
C          C       0.18129   0.17302   0.69659   0.06773
C          C       0.20055   0.14590   0.61589  -0.13982
C          C       0.28967   0.14415   0.61069  -0.09622
C          C       0.61116   0.23018   0.43596   0.10328
C          C       0.61047   0.22480   0.34847  -0.17691
C          C       0.60643   0.14038   0.29797  -0.00291
C          C       0.60297   0.06472   0.33706  -0.12915
C          C       0.60475   0.07569   0.42506   0.10984
C          C       0.59894   0.12489   0.20211   0.47818
C          C       0.59755   0.15047   0.93321   0.11879
C          C       0.58788   0.14083   0.01559  -0.22916
C          C       0.64910   0.20415   0.08861   0.27621
C          C       0.71657   0.27542   0.07443  -0.25426
C          C       0.72114   0.27972   0.98958   0.09817
N          N       0.39143   0.84284   0.52652  -0.18998
N          N       0.35494   0.80042   0.82581  -0.37400
N          N       0.33695   0.78190   0.08047  -0.21357
N          N       0.60856   0.15716   0.47348  -0.19006
N          N       0.64505   0.19957   0.17419  -0.37415
N          N       0.66304   0.21809   0.91953  -0.21354
O          O       0.36436   0.92975   0.23987  -0.55446
O          O       0.39049   0.96126   0.38727  -0.53979
O          O       0.24064   0.79696   0.35568  -0.56869
O          O       0.20021   0.77946   0.20826  -0.54363
O          O       0.32009   0.65306   0.22448  -0.54294
O          O       0.37892   0.69192   0.37151  -0.55734
O          O       0.52473   0.85273   0.39193  -0.54295
O          O       0.47904   0.80469   0.24475  -0.56364
O          O       0.44486   0.94893   0.84692  -0.42755
O          O       0.63563   0.07024   0.76012  -0.55478
O          O       0.60951   0.03873   0.61273  -0.53963
O          O       0.75935   0.20303   0.64432  -0.56848
O          O       0.79978   0.22053   0.79174  -0.54376
O          O       0.67990   0.34693   0.77551  -0.54317
O          O       0.62108   0.30807   0.62848  -0.55700
O          O       0.47526   0.14726   0.60807  -0.54290
O          O       0.52095   0.19530   0.75525  -0.56402
O          O       0.55513   0.05107   0.15308  -0.42712

