data_crystal

_audit_creation_method 'AiiDA-DDEC plugin'

_cell_length_a        13.51286
_cell_length_b        14.65596
_cell_length_c        14.65629

_cell_angle_alpha     93.47013
_cell_angle_beta     114.67611
_cell_angle_gamma     114.67524

_symmetry_space_group_name_Hall 'P 1'
_symmetry_space_group_name_H-M  'P 1'

loop_
_symmetry_equiv_pos_as_xyz
 'x,y,z'

loop_
_atom_site_label
_atom_site_type_symbol
_atom_site_fract_x
_atom_site_fract_y
_atom_site_fract_z
_atom_site_charge
Cd         Cd      0.75000   0.95811   0.04189   0.97736
Cd         Cd      0.25000   0.04190   0.95810   0.97734
Cd         Cd      0.00000   0.00000   0.00000   1.19357
Cd         Cd      0.50000   0.00000   0.00000   1.19356
H          H       0.08877   0.23111   0.00835   0.11299
H          H       0.92072   0.34861   0.14308   0.11804
H          H       0.06138   0.53179   0.15472   0.10781
H          H       0.22318   0.70397   0.14532   0.11192
H          H       0.39826   0.84357   0.13150   0.10623
H          H       0.46338   0.61292   0.00829   0.11430
H          H       0.28393   0.42414   0.87761   0.09270
H          H       0.17526   0.30563   0.87985   0.10211
H          H       0.13265   0.49343   0.84269   0.07991
H          H       0.02496   0.37360   0.84394   0.06994
H          H       0.97397   0.37485   0.65792   0.11892
H          H       0.01680   0.27756   0.68988   0.10740
H          H       0.12470   0.39755   0.68672   0.11706
H          H       0.32242   0.31899   0.04417   0.10736
H          H       0.43401   0.43777   0.04633   0.08274
H          H       0.36175   0.40676   0.21919   0.08234
H          H       0.47505   0.52437   0.22093   0.07429
H          H       0.57769   0.42902   0.32610   0.11281
H          H       0.60021   0.43543   0.21558   0.11008
H          H       0.48589   0.31751   0.21535   0.12287
H          H       0.41122   0.99165   0.76889   0.11311
H          H       0.57929   0.85693   0.65140   0.11794
H          H       0.43863   0.84529   0.46822   0.10768
H          H       0.27683   0.85469   0.29604   0.11177
H          H       0.10175   0.86851   0.15644   0.10608
H          H       0.03662   0.99171   0.38708   0.11439
H          H       0.21607   0.12239   0.57586   0.09252
H          H       0.32475   0.12016   0.69437   0.10212
H          H       0.36735   0.15731   0.50657   0.07983
H          H       0.47504   0.15606   0.62640   0.07004
H          H       0.52604   0.34208   0.62515   0.11904
H          H       0.48320   0.31012   0.72245   0.10744
H          H       0.37531   0.31329   0.60245   0.11700
H          H       0.17758   0.95584   0.68100   0.10741
H          H       0.06598   0.95367   0.56223   0.08284
H          H       0.13825   0.78081   0.59324   0.08228
H          H       0.02495   0.77907   0.47563   0.07419
H          H       0.92231   0.67390   0.57098   0.11250
H          H       0.89979   0.78443   0.56456   0.11008
H          H       0.01411   0.78466   0.68249   0.12290
H          H       0.91123   0.76890   0.99165   0.11312
H          H       0.07928   0.65140   0.85692   0.11806
H          H       0.93862   0.46822   0.84528   0.10765
H          H       0.77682   0.29604   0.85468   0.11193
H          H       0.60174   0.15644   0.86850   0.10612
H          H       0.53662   0.38708   0.99171   0.11429
H          H       0.71607   0.57586   0.12239   0.09255
H          H       0.82475   0.69438   0.12015   0.10233
H          H       0.86736   0.50658   0.15731   0.07975
H          H       0.97504   0.62641   0.15606   0.07008
H          H       0.02603   0.62516   0.34208   0.11889
H          H       0.98320   0.72245   0.31011   0.10758
H          H       0.87531   0.60245   0.31328   0.11686
H          H       0.67759   0.68101   0.95583   0.10746
H          H       0.56599   0.56224   0.95367   0.08259
H          H       0.63826   0.59324   0.78081   0.08249
H          H       0.52495   0.47564   0.77907   0.07408
H          H       0.42231   0.57099   0.67390   0.11283
H          H       0.39979   0.56457   0.78442   0.10994
H          H       0.51411   0.68250   0.78465   0.12309
H          H       0.58878   0.00835   0.23111   0.11310
H          H       0.42072   0.14308   0.34860   0.11798
H          H       0.56138   0.15472   0.53178   0.10769
H          H       0.72318   0.14532   0.70396   0.11181
H          H       0.89826   0.13150   0.84356   0.10608
H          H       0.96339   0.00829   0.61292   0.11435
H          H       0.78393   0.87761   0.42414   0.09245
H          H       0.67526   0.87985   0.30563   0.10219
H          H       0.63265   0.84269   0.49343   0.07978
H          H       0.52496   0.84395   0.37360   0.07011
H          H       0.47397   0.65793   0.37484   0.11890
H          H       0.51680   0.68989   0.27755   0.10750
H          H       0.62469   0.68672   0.39755   0.11686
H          H       0.82242   0.04416   0.31899   0.10745
H          H       0.93402   0.04633   0.43777   0.08274
H          H       0.86175   0.21920   0.40676   0.08240
H          H       0.97506   0.22093   0.52437   0.07413
H          H       0.07769   0.32611   0.42902   0.11286
H          H       0.10021   0.21558   0.43543   0.11003
H          H       0.98589   0.21535   0.31751   0.12293
C          C       0.08363   0.29645   0.04123  -0.14505
C          C       0.99633   0.27935   0.07604  -0.05122
C          C       0.98943   0.36460   0.11726  -0.09747
C          C       0.06790   0.46645   0.12369  -0.12624
C          C       0.27579   0.68373   0.11638  -0.11966
C          C       0.37339   0.76176   0.10853  -0.09269
C          C       0.44131   0.73574   0.07085  -0.05830
C          C       0.40990   0.63040   0.03813  -0.13083
C          C       0.26286   0.43512   0.01570   0.07905
C          C       0.16252   0.39793   0.04822   0.03297
C          C       0.15448   0.48295   0.08902   0.02318
C          C       0.24725   0.57939   0.08661   0.03284
C          C       0.31318   0.55284   0.04597   0.02531
C          C       0.90891   0.17178   0.06872   0.58967
C          C       0.54782   0.81759   0.06526   0.56262
C          C       0.20725   0.39018   0.89600  -0.19932
C          C       0.10083   0.40893   0.82500  -0.10631
C          C       0.05144   0.36242   0.70862  -0.37236
C          C       0.36478   0.40437   0.07297  -0.19994
C          C       0.43104   0.43885   0.19268  -0.10378
C          C       0.52895   0.40329   0.24012  -0.36784
C          C       0.41637   0.95877   0.70355  -0.14507
C          C       0.50367   0.92396   0.72065  -0.05119
C          C       0.51057   0.88274   0.63541  -0.09747
C          C       0.43211   0.87632   0.53356  -0.12625
C          C       0.22422   0.88362   0.31628  -0.11974
C          C       0.12662   0.89148   0.23825  -0.09266
C          C       0.05869   0.92915   0.26427  -0.05836
C          C       0.09010   0.96187   0.36960  -0.13066
C          C       0.23714   0.98431   0.56488   0.07906
C          C       0.33748   0.95178   0.60207   0.03292
C          C       0.34552   0.91098   0.51706   0.02332
C          C       0.25275   0.91339   0.42062   0.03272
C          C       0.18681   0.95404   0.44716   0.02540
C          C       0.59109   0.93129   0.82822   0.58969
C          C       0.95219   0.93474   0.18241   0.56262
C          C       0.29275   0.10400   0.60982  -0.19902
C          C       0.39918   0.17500   0.59107  -0.10633
C          C       0.44857   0.29138   0.63758  -0.37243
C          C       0.13522   0.92704   0.59563  -0.19999
C          C       0.06896   0.80732   0.56115  -0.10377
C          C       0.97106   0.75988   0.59671  -0.36755
C          C       0.91638   0.70356   0.95877  -0.14514
C          C       0.00367   0.72065   0.92396  -0.05098
C          C       0.01057   0.63541   0.88274  -0.09742
C          C       0.93210   0.53355   0.87631  -0.12614
C          C       0.72421   0.31628   0.88362  -0.11963
C          C       0.62662   0.23825   0.89147  -0.09279
C          C       0.55869   0.26427   0.92915  -0.05842
C          C       0.59010   0.36960   0.96187  -0.13074
C          C       0.73714   0.56488   0.98430   0.07920
C          C       0.83748   0.60207   0.95178   0.03299
C          C       0.84552   0.51706   0.91098   0.02313
C          C       0.75275   0.42062   0.91339   0.03283
C          C       0.68682   0.44716   0.95403   0.02516
C          C       0.09109   0.82823   0.93128   0.58920
C          C       0.45218   0.18241   0.93474   0.56274
C          C       0.79275   0.60982   0.10400  -0.19938
C          C       0.89918   0.59107   0.17500  -0.10639
C          C       0.94856   0.63758   0.29138  -0.37233
C          C       0.63523   0.59564   0.92703  -0.19985
C          C       0.56897   0.56115   0.80732  -0.10374
C          C       0.47106   0.59671   0.75988  -0.36787
C          C       0.58363   0.04124   0.29644  -0.14499
C          C       0.49634   0.07605   0.27935  -0.05129
C          C       0.48943   0.11726   0.36459  -0.09731
C          C       0.56790   0.12369   0.46644  -0.12622
C          C       0.77578   0.11638   0.68372  -0.11969
C          C       0.87338   0.10853   0.76175  -0.09269
C          C       0.94131   0.07085   0.73573  -0.05843
C          C       0.90990   0.03813   0.63040  -0.13059
C          C       0.76286   0.01570   0.43512   0.07916
C          C       0.66252   0.04822   0.39793   0.03291
C          C       0.65448   0.08902   0.48294   0.02317
C          C       0.74725   0.08661   0.57938   0.03282
C          C       0.81319   0.04597   0.55284   0.02532
C          C       0.40891   0.06872   0.17178   0.58953
C          C       0.04782   0.06526   0.81759   0.56269
C          C       0.70725   0.89600   0.39018  -0.19908
C          C       0.60083   0.82500   0.40893  -0.10641
C          C       0.55144   0.70863   0.36242  -0.37237
C          C       0.86478   0.07297   0.40437  -0.19994
C          C       0.93104   0.19269   0.43885  -0.10375
C          C       0.02895   0.24012   0.40329  -0.36774
O          O       0.83187   0.15587   0.10087  -0.53176
O          O       0.91105   0.09211   0.02476  -0.65730
O          O       0.60820   0.79256   0.03243  -0.49448
O          O       0.58051   0.91665   0.09760  -0.62833
O          O       0.66814   0.89914   0.84414  -0.53185
O          O       0.58896   0.97525   0.90789  -0.65733
O          O       0.89180   0.96758   0.20744  -0.49418
O          O       0.91949   0.90240   0.08336  -0.62858
O          O       0.16814   0.84414   0.89913  -0.53145
O          O       0.08896   0.90790   0.97524  -0.65719
O          O       0.39180   0.20745   0.96757  -0.49435
O          O       0.41949   0.08336   0.90240  -0.62862
O          O       0.33186   0.10087   0.15586  -0.53167
O          O       0.41104   0.02476   0.09210  -0.65733
O          O       0.10820   0.03243   0.79256  -0.49419
O          O       0.08051   0.09760   0.91664  -0.62859

