data_crystal

_audit_creation_method 'AiiDA-DDEC plugin'

_cell_length_a         9.00009
_cell_length_b        16.06913
_cell_length_c        25.59105

_cell_angle_alpha     89.91209
_cell_angle_beta     96.75661
_cell_angle_gamma     89.95925

_symmetry_space_group_name_Hall 'P 1'
_symmetry_space_group_name_H-M  'P 1'

loop_
_symmetry_equiv_pos_as_xyz
 'x,y,z'

loop_
_atom_site_label
_atom_site_type_symbol
_atom_site_fract_x
_atom_site_fract_y
_atom_site_fract_z
_atom_site_charge
Y          Y       0.86828   0.66697   0.00470   1.70338
Y          Y       0.36829   0.83960   0.83829   1.70279
Y          Y       0.36687   0.82769   0.17275   1.69891
Y          Y       0.63275   0.16668   0.49524   1.70507
Y          Y       0.13075   0.33861   0.66014   1.69986
Y          Y       0.13463   0.32987   0.32781   1.70028
Y          Y       0.13173   0.33303   0.99530   1.70353
Y          Y       0.63172   0.16039   0.16171   1.70276
Y          Y       0.63315   0.17231   0.82725   1.69878
Y          Y       0.36726   0.83332   0.50476   1.70534
Y          Y       0.86926   0.66138   0.33986   1.69964
Y          Y       0.86538   0.67013   0.67219   1.70009
H          H       0.28139   0.61170   0.00527   0.15456
H          H       0.68948   0.74044   0.11899   0.08523
H          H       0.78071   0.89390   0.84183   0.15244
H          H       0.18858   0.75765   0.95191   0.08656
H          H       0.77787   0.88038   0.17334   0.15265
H          H       0.18805   0.75008   0.28571   0.08567
H          H       0.22108   0.11129   0.49408   0.15288
H          H       0.81226   0.24291   0.38183   0.08568
H          H       0.71787   0.39254   0.65831   0.15308
H          H       0.30952   0.25919   0.54731   0.08660
H          H       0.72355   0.38249   0.32662   0.15367
H          H       0.31329   0.25215   0.21485   0.08550
H          H       0.71862   0.38830   0.99473   0.15460
H          H       0.31053   0.25956   0.88101   0.08523
H          H       0.21931   0.10610   0.15817   0.15260
H          H       0.81143   0.24234   0.04808   0.08634
H          H       0.22214   0.11962   0.82666   0.15284
H          H       0.81196   0.24992   0.71428   0.08559
H          H       0.77894   0.88871   0.50591   0.15261
H          H       0.18775   0.75708   0.61817   0.08595
H          H       0.28215   0.60746   0.34169   0.15310
H          H       0.69049   0.74081   0.45269   0.08655
H          H       0.27646   0.61751   0.67337   0.15370
H          H       0.68673   0.74784   0.78515   0.08565
C          C       0.51939   0.63010   0.02150   0.18634
C          C       0.19174   0.70962   0.08840   0.61294
C          C       0.37106   0.64041   0.03130  -0.16347
C          C       0.34556   0.68954   0.07388   0.14318
C          C       0.55535   0.58286   0.97271   0.53931
C          C       0.59833   0.71125   0.09379   0.28264
C          C       0.97597   0.48892   0.02749   0.49517
C          C       0.01853   0.87419   0.85733   0.18333
C          C       0.69083   0.79051   0.92289   0.61637
C          C       0.87014   0.86315   0.86698  -0.15934
C          C       0.84448   0.81096   0.90817   0.13878
C          C       0.05317   0.92436   0.80952   0.54536
C          C       0.09758   0.78830   0.92736   0.28278
C          C       0.47867   0.01657   0.86024   0.49363
C          C       0.52177   0.99564   0.80427   0.49113
C          C       0.01624   0.86226   0.18918   0.18615
C          C       0.69034   0.78074   0.25675   0.61447
C          C       0.86804   0.85135   0.19909  -0.16104
C          C       0.84331   0.80138   0.24149   0.13864
C          C       0.05202   0.91030   0.14054   0.54419
C          C       0.09648   0.77976   0.26089   0.28228
C          C       0.98304   0.13046   0.47839   0.18665
C          C       0.30953   0.20923   0.40995   0.61187
C          C       0.13128   0.14052   0.46828  -0.16285
C          C       0.15642   0.18991   0.42567   0.14224
C          C       0.94741   0.08295   0.52722   0.54177
C          C       0.90349   0.21285   0.40660   0.28324
C          C       0.52535   0.98880   0.47267   0.49098
C          C       0.47983   0.37392   0.64259   0.18593
C          C       0.80767   0.29043   0.57701   0.61528
C          C       0.62815   0.36279   0.63284  -0.16145
C          C       0.65371   0.31128   0.59131   0.14115
C          C       0.44441   0.42250   0.69108   0.53931
C          C       0.40083   0.28937   0.57189   0.28173
C          C       0.02035   0.51540   0.63842   0.49002
C          C       0.97373   0.49276   0.69370   0.49334
C          C       0.48530   0.36403   0.31116   0.18767
C          C       0.81167   0.28210   0.24399   0.61428
C          C       0.63345   0.35322   0.30107  -0.16297
C          C       0.65831   0.30267   0.25904   0.14210
C          C       0.45073   0.41093   0.36032   0.53906
C          C       0.40500   0.28155   0.23967   0.28377
C          C       0.48062   0.36989   0.97850   0.18625
C          C       0.80827   0.29037   0.91160   0.61231
C          C       0.62895   0.35959   0.96870  -0.16368
C          C       0.65445   0.31045   0.92612   0.14347
C          C       0.44466   0.41714   0.02729   0.53948
C          C       0.40168   0.28875   0.90621   0.28263
C          C       0.02404   0.51108   0.97251   0.49540
C          C       0.98148   0.12580   0.14266   0.18352
C          C       0.30918   0.20949   0.07711   0.61596
C          C       0.12987   0.13684   0.13301  -0.15927
C          C       0.15553   0.18903   0.09183   0.13883
C          C       0.94685   0.07564   0.19048   0.54549
C          C       0.90243   0.21169   0.07263   0.28280
C          C       0.52135   0.98342   0.13976   0.49352
C          C       0.47824   0.00435   0.19573   0.49141
C          C       0.98377   0.13773   0.81082   0.18642
C          C       0.30967   0.21925   0.74325   0.61432
C          C       0.13197   0.14865   0.80091  -0.16114
C          C       0.15670   0.19862   0.75851   0.13873
C          C       0.94799   0.08970   0.85946   0.54420
C          C       0.90353   0.22024   0.73911   0.28196
C          C       0.01697   0.86954   0.52161   0.18644
C          C       0.69048   0.79076   0.59005   0.61199
C          C       0.86873   0.85947   0.53171  -0.16298
C          C       0.84359   0.81009   0.57433   0.14216
C          C       0.05260   0.91704   0.47278   0.54201
C          C       0.09652   0.78715   0.59340   0.28323
C          C       0.47466   0.01120   0.52733   0.49141
C          C       0.52019   0.62608   0.35741   0.18605
C          C       0.19235   0.70956   0.42299   0.61550
C          C       0.37186   0.63721   0.36716  -0.16163
C          C       0.34630   0.68871   0.40869   0.14135
C          C       0.55560   0.57750   0.30892   0.53882
C          C       0.59918   0.71063   0.42811   0.28210
C          C       0.97966   0.48459   0.36158   0.49005
C          C       0.02628   0.50723   0.30629   0.49310
C          C       0.51471   0.63597   0.68883   0.18746
C          C       0.18834   0.71790   0.75601   0.61457
C          C       0.36656   0.64677   0.69893  -0.16295
C          C       0.34171   0.69732   0.74096   0.14222
C          C       0.54928   0.58907   0.63967   0.53901
C          C       0.59501   0.71844   0.76032   0.28354
N          N       0.63320   0.66590   0.05289  -0.31633
N          N       0.45941   0.72483   0.10570  -0.33496
N          N       0.13272   0.83689   0.88782  -0.31565
N          N       0.95863   0.77325   0.93875  -0.33663
N          N       0.13069   0.82630   0.22035  -0.31625
N          N       0.95789   0.76556   0.27283  -0.33533
N          N       0.86888   0.16670   0.44727  -0.31565
N          N       0.04214   0.22616   0.39441  -0.33784
N          N       0.36590   0.33737   0.61164  -0.31765
N          N       0.53976   0.27419   0.56045  -0.33700
N          N       0.37081   0.32853   0.27998  -0.31537
N          N       0.54363   0.26642   0.22800  -0.34010
N          N       0.36681   0.33409   0.94711  -0.31666
N          N       0.54060   0.27516   0.89429  -0.33463
N          N       0.86730   0.16310   0.11218  -0.31609
N          N       0.04139   0.22675   0.06124  -0.33653
N          N       0.86932   0.17369   0.77965  -0.31646
N          N       0.04212   0.23443   0.72717  -0.33522
N          N       0.13113   0.83330   0.55273  -0.31520
N          N       0.95787   0.77383   0.60558  -0.33790
N          N       0.63412   0.66262   0.38836  -0.31738
N          N       0.46025   0.72581   0.43954  -0.33769
N          N       0.62920   0.67147   0.72002  -0.31476
N          N       0.45638   0.73358   0.77200  -0.34047
O          O       0.69548   0.58357   0.96541  -0.63802
O          O       0.08135   0.70447   0.05290  -0.60931
O          O       0.92470   0.54705   0.05306  -0.52509
O          O       0.18538   0.73327   0.13514  -0.57904
O          O       0.99145   0.41321   0.04214  -0.55631
O          O       0.45093   0.54978   0.94462  -0.47899
O          O       0.19269   0.92457   0.80153  -0.63869
O          O       0.57813   0.79982   0.88862  -0.60950
O          O       0.42937   0.95812   0.88617  -0.52249
O          O       0.57085   0.05417   0.77827  -0.52023
O          O       0.68726   0.76269   0.96891  -0.58074
O          O       0.50434   0.92027   0.78937  -0.55264
O          O       0.49567   0.09185   0.87532  -0.55439
O          O       0.94746   0.95865   0.78265  -0.48060
O          O       0.19309   0.91216   0.13464  -0.64056
O          O       0.57789   0.78737   0.22220  -0.60599
O          O       0.68739   0.75522   0.30340  -0.58115
O          O       0.94740   0.94130   0.11136  -0.48240
O          O       0.80720   0.08359   0.53450  -0.64031
O          O       0.42223   0.20413   0.44453  -0.60664
O          O       0.57833   0.04667   0.44728  -0.52140
O          O       0.31222   0.23253   0.36285  -0.57908
O          O       0.51032   0.91308   0.45809  -0.55418
O          O       0.05206   0.04987   0.55533  -0.47917
O          O       0.30413   0.42380   0.69818  -0.63792
O          O       0.91902   0.29970   0.61170  -0.60847
O          O       0.06814   0.45754   0.61173  -0.51956
O          O       0.92031   0.55017   0.71936  -0.52226
O          O       0.81391   0.26236   0.53126  -0.58062
O          O       0.99200   0.41731   0.70855  -0.55253
O          O       0.00707   0.59155   0.62461  -0.55551
O          O       0.54984   0.45436   0.71932  -0.47902
O          O       0.31065   0.41173   0.36765  -0.63934
O          O       0.92487   0.29147   0.27795  -0.60805
O          O       0.81507   0.25420   0.19804  -0.58081
O          O       0.55659   0.44193   0.38882  -0.48098
O          O       0.30453   0.41642   0.03459  -0.63864
O          O       0.91866   0.29553   0.94709  -0.60896
O          O       0.07531   0.45295   0.94694  -0.52480
O          O       0.81463   0.26672   0.86486  -0.57848
O          O       0.00856   0.58679   0.95786  -0.55636
O          O       0.54908   0.45022   0.05538  -0.47895
O          O       0.80733   0.07543   0.19847  -0.63915
O          O       0.42188   0.20017   0.11138  -0.60934
O          O       0.57064   0.04187   0.11382  -0.52221
O          O       0.42916   0.94582   0.22173  -0.52058
O          O       0.31276   0.23730   0.03109  -0.58019
O          O       0.49567   0.07973   0.21063  -0.55311
O          O       0.50434   0.90815   0.12468  -0.55402
O          O       0.05256   0.04135   0.21735  -0.48033
O          O       0.80692   0.08783   0.86535  -0.64107
O          O       0.42212   0.21262   0.77780  -0.60591
O          O       0.31262   0.24478   0.69660  -0.58076
O          O       0.05261   0.05870   0.88864  -0.48200
O          O       0.19282   0.91640   0.46549  -0.64007
O          O       0.57778   0.79586   0.55546  -0.60675
O          O       0.42168   0.95333   0.55272  -0.52179
O          O       0.68780   0.76746   0.63714  -0.57955
O          O       0.48969   0.08692   0.54191  -0.55476
O          O       0.94795   0.95013   0.44467  -0.47943
O          O       0.69588   0.57619   0.30181  -0.63715
O          O       0.08099   0.70030   0.38830  -0.60863
O          O       0.93187   0.54245   0.38826  -0.51994
O          O       0.07970   0.44983   0.28064  -0.52167
O          O       0.18610   0.73763   0.46874  -0.58104
O          O       0.00801   0.58269   0.29145  -0.55251
O          O       0.99294   0.40845   0.37539  -0.55552
O          O       0.45017   0.54563   0.28067  -0.47892
O          O       0.68936   0.58827   0.63234  -0.63878
O          O       0.07514   0.70853   0.72205  -0.60825
O          O       0.18494   0.74579   0.80196  -0.58129
O          O       0.44342   0.55806   0.61118  -0.48108

