data_crystal

_audit_creation_method 'AiiDA-DDEC plugin'

_cell_length_a        12.98911
_cell_length_b        16.35317
_cell_length_c        17.64006

_cell_angle_alpha     70.28238
_cell_angle_beta     71.76276
_cell_angle_gamma     71.48689

_symmetry_space_group_name_Hall 'P 1'
_symmetry_space_group_name_H-M  'P 1'

loop_
_symmetry_equiv_pos_as_xyz
 'x,y,z'

loop_
_atom_site_label
_atom_site_type_symbol
_atom_site_fract_x
_atom_site_fract_y
_atom_site_fract_z
_atom_site_charge
Zn         Zn      0.52318   0.65153   0.96672   0.88461
Zn         Zn      0.63890   0.53537   0.83937   0.86061
Zn         Zn      0.37079   0.60324   0.88027   0.95452
Zn         Zn      0.47682   0.34847   0.03328   0.88457
Zn         Zn      0.36110   0.46464   0.16063   0.86052
Zn         Zn      0.62921   0.39676   0.11973   0.95453
H          H       0.34516   0.63963   0.63324   0.11063
H          H       0.35267   0.64311   0.49029   0.10524
H          H       0.71185   0.58152   0.43777   0.10644
H          H       0.70192   0.57301   0.58279   0.12525
H          H       0.85511   0.29228   0.76094   0.11718
H          H       0.00438   0.15292   0.75700   0.10691
H          H       0.00154   0.11504   0.01148   0.10067
H          H       0.85423   0.25462   0.01394   0.10589
H          H       0.04270   0.68306   0.75039   0.12698
H          H       0.23563   0.67182   0.75897   0.10910
H          H       0.16206   0.56856   0.01278   0.10790
H          H       0.96395   0.58120   0.01673   0.12411
H          H       0.71442   0.52538   0.20804   0.10587
H          H       0.70752   0.53052   0.34842   0.10305
H          H       0.37019   0.69217   0.36419   0.10881
H          H       0.37900   0.68455   0.22384   0.12116
H          H       0.19885   0.86358   0.79659   0.11982
H          H       0.05102   0.00466   0.79595   0.10945
H          H       0.18001   0.05613   0.96808   0.11075
H          H       0.32651   0.91422   0.96850   0.12502
H          H       0.87569   0.51689   0.74749   0.15540
H          H       0.94729   0.60462   0.70528   0.13459
H          H       0.99527   0.50848   0.78135   0.13749
H          H       0.66243   0.74564   0.01278   0.15607
H          H       0.76178   0.65664   0.06013   0.14305
H          H       0.80513   0.75072   0.98503   0.13999
H          H       0.65484   0.36037   0.36677   0.11083
H          H       0.64734   0.35689   0.50971   0.10541
H          H       0.28816   0.41848   0.56223   0.10640
H          H       0.29809   0.42699   0.41721   0.12509
H          H       0.14490   0.70772   0.23906   0.11740
H          H       0.99562   0.84708   0.24300   0.10700
H          H      -0.00154   0.88496   0.98853   0.10050
H          H       0.14577   0.74539   0.98606   0.10567
H          H       0.95730   0.31694   0.24962   0.12708
H          H       0.76437   0.32818   0.24103   0.10459
H          H       0.83795   0.43144   0.98722   0.10783
H          H       0.03605   0.41880   0.98327   0.12412
H          H       0.28558   0.47462   0.79196   0.10583
H          H       0.29248   0.46948   0.65159   0.10289
H          H       0.62982   0.30784   0.63582   0.10872
H          H       0.62100   0.31545   0.77616   0.12122
H          H       0.80116   0.13643   0.20341   0.12003
H          H       0.94898   0.99535   0.20405   0.10967
H          H       0.82000   0.94388   0.03192   0.11054
H          H       0.67350   0.08579   0.03150   0.12488
H          H       0.12431   0.48311   0.25251   0.15560
H          H       0.05271   0.39538   0.29472   0.13455
H          H       0.00474   0.49152   0.21866   0.13731
H          H       0.33757   0.25437   0.98723   0.15614
H          H       0.23822   0.34336   0.93987   0.14299
H          H       0.19487   0.24929   0.01497   0.13975
C          C       0.55470   0.60037   0.12331   0.55955
C          C       0.52296   0.60577   0.61731  -0.02524
C          C       0.42500   0.62725   0.58965  -0.09292
C          C       0.42978   0.62977   0.50909  -0.13690
C          C       0.53292   0.61210   0.45234   0.07333
C          C       0.63087   0.59291   0.48033  -0.13473
C          C       0.62619   0.58919   0.56125  -0.09552
C          C       0.84552   0.28268   0.88758  -0.02888
C          C       0.88778   0.25274   0.81542  -0.09684
C          C       0.97118   0.17449   0.81370  -0.14286
C          C       0.01559   0.12394   0.88365   0.06872
C          C       0.97214   0.15451   0.95567  -0.13312
C          C       0.88825   0.23228   0.95771  -0.09565
C          C       0.98537   0.63184   0.88324   0.15677
C          C       0.06515   0.65726   0.80997  -0.20288
C          C       0.17221   0.65179   0.81391   0.07926
C          C       0.13070   0.59494   0.95672   0.09206
C          C       0.02072   0.60240   0.95793  -0.18977
C          C       0.54760   0.60526   0.20752  -0.03040
C          C       0.64033   0.56253   0.24284  -0.09022
C          C       0.63583   0.56608   0.32131  -0.13640
C          C       0.53826   0.61185   0.36762   0.07355
C          C       0.44592   0.65499   0.33091  -0.13370
C          C       0.45026   0.65196   0.25207  -0.07995
C          C       0.19442   0.90711   0.83298  -0.09716
C          C       0.11218   0.98616   0.83278  -0.14670
C          C       0.10438   0.04113   0.88206   0.07164
C          C       0.18340   0.01408   0.93059  -0.13341
C          C       0.26634   0.93539   0.93041  -0.08422
C          C       0.27215   0.88079   0.88195  -0.02913
C          C       0.51765   0.59851   0.70555   0.58249
C          C       0.35480   0.79195   0.88679   0.58154
C          C       0.75915   0.36827   0.89041   0.56188
C          C       0.91990   0.55466   0.76220  -0.43556
C          C       0.84601   0.59767   0.82913   0.21546
C          C       0.87397   0.63202   0.88181  -0.20023
C          C       0.77100   0.66192   0.93487   0.23103
C          C       0.74894   0.70633   0.00155  -0.43613
C          C       0.44531   0.39964   0.87669   0.55942
C          C       0.47704   0.39424   0.38269  -0.02546
C          C       0.57501   0.37275   0.41035  -0.09300
C          C       0.57023   0.37023   0.49091  -0.13678
C          C       0.46708   0.38790   0.54766   0.07337
C          C       0.36914   0.40709   0.51967  -0.13473
C          C       0.37382   0.41082   0.43875  -0.09550
C          C       0.15449   0.71732   0.11243  -0.02911
C          C       0.11223   0.74726   0.18458  -0.09675
C          C       0.02883   0.82551   0.18630  -0.14275
C          C       0.98442   0.87607   0.11635   0.06872
C          C       0.02786   0.84549   0.04433  -0.13312
C          C       0.11175   0.76773   0.04229  -0.09557
C          C       0.01463   0.36816   0.11676   0.15689
C          C       0.93486   0.34274   0.19004  -0.20253
C          C       0.82780   0.34821   0.18609   0.08236
C          C       0.86931   0.40506   0.04328   0.09196
C          C       0.97929   0.39760   0.04207  -0.18987
C          C       0.45240   0.39474   0.79249  -0.03053
C          C       0.35968   0.43747   0.75716  -0.08990
C          C       0.36417   0.43392   0.67869  -0.13651
C          C       0.46174   0.38815   0.63238   0.07331
C          C       0.55408   0.34501   0.66910  -0.13363
C          C       0.54975   0.34805   0.74793  -0.07973
C          C       0.80558   0.09289   0.16702  -0.09712
C          C       0.88782   0.01384   0.16723  -0.14661
C          C       0.89562   0.95887   0.11795   0.07154
C          C       0.81660   0.98593   0.06941  -0.13344
C          C       0.73367   0.06462   0.06959  -0.08448
C          C       0.72785   0.11921   0.11805  -0.02899
C          C       0.48235   0.40149   0.29445   0.58267
C          C       0.64520   0.20805   0.11322   0.58142
C          C       0.24085   0.63173   0.10959   0.56200
C          C       0.08010   0.44534   0.23780  -0.43535
C          C       0.15399   0.40233   0.17088   0.21531
C          C       0.12603   0.36798   0.11819  -0.20028
C          C       0.22900   0.33808   0.06513   0.23082
C          C       0.25106   0.29367  -0.00155  -0.43612
N          N       0.73480   0.60601   0.85048  -0.25116
N          N       0.68877   0.64715   0.91393  -0.24772
N          N       0.20551   0.62003   0.88589  -0.21237
N          N       0.26520   0.39399   0.14953  -0.25072
N          N       0.31123   0.35286   0.08607  -0.24773
N          N       0.79450   0.37997   0.11412  -0.21228
O          O       0.50420   0.56689   0.92080  -0.73703
O          O       0.62760   0.53925   0.09413  -0.55759
O          O       0.48768   0.66204   0.08169  -0.50103
O          O       0.42165   0.61153   0.75363  -0.55624
O          O       0.61133   0.57906   0.72470  -0.52758
O          O       0.42712   0.77405   0.92867  -0.52180
O          O       0.34368   0.74172   0.84976  -0.54908
O          O       0.73835   0.42014   0.81999  -0.53662
O          O       0.71345   0.38884   0.95784  -0.55684
O          O       0.49580   0.43311   0.07920  -0.73698
O          O       0.37241   0.46076   0.90588  -0.55755
O          O       0.51232   0.33796   0.91831  -0.50093
O          O       0.57835   0.38847   0.24637  -0.55547
O          O       0.38867   0.42094   0.27530  -0.52777
O          O       0.57288   0.22595   0.07133  -0.52207
O          O       0.65632   0.25828   0.15025  -0.54878
O          O       0.26165   0.57986   0.18001  -0.53641
O          O       0.28655   0.61117   0.04216  -0.55709

