data_crystal

_audit_creation_method 'AiiDA-DDEC plugin'

_cell_length_a        11.41138
_cell_length_b        16.90327
_cell_length_c        17.82008

_cell_angle_alpha     90.39490
_cell_angle_beta     89.94879
_cell_angle_gamma     90.07639

_symmetry_space_group_name_Hall 'P 1'
_symmetry_space_group_name_H-M  'P 1'

loop_
_symmetry_equiv_pos_as_xyz
 'x,y,z'

loop_
_atom_site_label
_atom_site_type_symbol
_atom_site_fract_x
_atom_site_fract_y
_atom_site_fract_z
_atom_site_charge
Eu         Eu      0.41991   0.59111   0.16801   1.77444
Eu         Eu      0.97021   0.03148   0.66363   1.76277
Eu         Eu      0.59024   0.37532   0.17320   1.77445
Eu         Eu      0.40981   0.87536   0.17414   1.77258
Eu         Eu      0.87910   0.74187   0.67583   1.76735
Eu         Eu      0.57984   0.09124   0.16822   1.77009
Eu         Eu      0.03322   0.52963   0.66487   1.76831
Eu         Eu      0.11900   0.24228   0.67556   1.74466
H          H       0.25598   0.91784   0.99393   0.13098
H          H       0.38637   0.19025   0.36092   0.13016
H          H       0.15228   0.93711   0.86105   0.13297
H          H       0.56960   0.73431   0.21489   0.42792
H          H       0.43054   0.23398   0.21494   0.42782
H          H       0.28680   0.20476   0.49561   0.13318
H          H       0.11330   0.51182   0.45962   0.13341
H          H       0.22173   0.53004   0.32758   0.13409
H          H       0.61413   0.68971   0.35968   0.13085
H          H       0.60380   0.77944   0.97898   0.13266
H          H       0.76604   0.08513   0.82553   0.13796
H          H       0.57427   0.73303   0.12829   0.42893
H          H       0.77889   0.02989   0.32756   0.13466
H          H       0.70966   0.70479   0.49500   0.13238
H          H       0.88819   0.01281   0.45915   0.13404
H          H       0.65730   0.10103   0.95785   0.13145
H          H       0.30701   0.26811   0.84218   0.13181
H          H       0.69537   0.76837   0.84181   0.13054
H          H       0.09333   0.85177   0.49241   0.14553
H          H       0.90922   0.35199   0.49089   0.14503
H          H       0.84784   0.43697   0.86054   0.13358
H          H       0.23386   0.58517   0.82629   0.13848
H          H       0.18493   0.86503   0.35542   0.12975
H          H       0.74478   0.41799   0.99400   0.13154
H          H       0.81708   0.36536   0.35408   0.12939
H          H       0.42587   0.23281   0.12840   0.42979
H          H       0.39740   0.27934   0.97970   0.13192
H          H       0.34242   0.60137   0.95798   0.13099
C          C       0.92535   0.21069   0.78354   0.60164
C          C       0.22667   0.63571   0.86400  -0.11037
C          C       0.81626   0.88219   0.55178   0.62938
C          C       0.70811   0.22821   0.28912   0.63281
C          C       0.84700   0.22971   0.48979  -0.10519
C          C       0.29512   0.31752   0.88066  -0.10570
C          C       0.77320   0.13561   0.86341  -0.10612
C          C       0.34673   0.04437   0.27904   0.62954
C          C       0.71668   0.65299   0.45895  -0.10899
C          C       0.70630   0.23749   0.04609   0.62169
C          C       0.79311   0.48036   0.88896  -0.10298
C          C       0.65937   0.82358   0.95283  -0.11107
C          C       0.70653   0.81797   0.88021  -0.10372
C          C       0.21784   0.08577   0.47889  -0.11255
C          C       0.20723   0.98061   0.88928  -0.10458
C          C       0.18444   0.38067   0.55067   0.63240
C          C       0.18182   0.47388   0.43694  -0.10839
C          C       0.32381   0.42555   0.35498  -0.09956
C          C       0.19074   0.08463   0.78490   0.62758
C          C       0.31144   0.39385   0.98922  -0.10858
C          C       0.81952   0.97458   0.43717  -0.11199
C          C       0.76263   0.98320   0.36783  -0.10817
C          C       0.15298   0.69917   0.84853  -0.07591
C          C       0.64558   0.92317   0.06249   0.62648
C          C       0.40218   0.41585   0.28964   0.60982
C          C       0.86358   0.30538   0.46039  -0.09923
C          C       0.07458   0.70960   0.78347   0.60745
C          C       0.29178   0.72827   0.28975   0.63308
C          C       0.68869   0.89449   0.98861  -0.11219
C          C       0.18633   0.81226   0.38969  -0.10898
C          C       0.67507   0.53698   0.98085  -0.10406
C          C       0.25297   0.71447   0.97048  -0.08399
C          C       0.81133   0.58418   0.78484   0.63153
C          C       0.33249   0.14563   0.38781  -0.11029
C          C       0.30766   0.07291   0.35382  -0.11314
C          C       0.29359   0.73748   0.04670   0.62285
C          C       0.15189   0.72853   0.49020  -0.10416
C          C       0.84681   0.19947   0.84833  -0.08067
C          C       0.23844   0.74253   0.36426  -0.11019
C          C       0.23855   0.48313   0.36749  -0.11033
C          C       0.28135   0.15297   0.45933  -0.10894
C          C       0.77948   0.58605   0.47991  -0.10855
C          C       0.84444   0.57288   0.55014   0.61550
C          C       0.39418   0.04904   0.05047   0.61227
C          C       0.60589   0.54917   0.04988   0.61342
C          C       0.74679   0.21402   0.97007  -0.08281
C          C       0.81884   0.90199   0.78530   0.63338
C          C       0.26080   0.97067   0.95954  -0.11129
C          C       0.28341   0.64413   0.93323  -0.10565
C          C       0.15031   0.06998   0.54721   0.60824
C          C       0.66749   0.64522   0.38703  -0.10997
C          C       0.22997   0.38431   0.86141  -0.11205
C          C       0.65330   0.54279   0.27928   0.62789
C          C       0.73973   0.47066   0.95939  -0.11166
C          C       0.59772   0.91707   0.29129   0.61213
C          C       0.76848   0.55383   0.85735  -0.11137
C          C       0.71645   0.14368   0.93281  -0.10974
C          C       0.32549   0.03696   0.98126  -0.10843
C          C       0.35457   0.42308   0.06272   0.62661
C          C       0.34164   0.32312   0.95337  -0.11003
C          C       0.22473   0.40923   0.47676  -0.10358
C          C       0.77111   0.88511   0.86070  -0.11816
C          C       0.89464   0.19929   0.56112   0.62267
C          C       0.81457   0.31280   0.38860  -0.10698
C          C       0.76050   0.24337   0.36386  -0.10794
C          C       0.67705   0.92564   0.35607  -0.09643
C          C       0.69276   0.57222   0.35375  -0.11364
C          C       0.10394   0.69710   0.56110   0.62242
C          C       0.77677   0.91032   0.47757  -0.10036
C          C       0.23202   0.05419   0.85775  -0.11292
C          C       0.18117   0.40193   0.78660   0.63401
C          C       0.13736   0.80473   0.46155  -0.09820
S          S       0.76740   0.16941   0.43010   0.21479
S          S       0.33403   0.36003   0.42858   0.21516
S          S       0.67922   0.61060   0.91425   0.20288
S          S       0.22338   0.45226   0.93389   0.21980
S          S       0.77742   0.51374   0.41116   0.21304
S          S       0.15466   0.76984   0.91952   0.21696
S          S       0.66743   0.86036   0.42988   0.21531
S          S       0.77655   0.95330   0.93301   0.22296
S          S       0.84517   0.26983   0.91952   0.21924
S          S       0.22876   0.66792   0.42951   0.21395
S          S       0.32121   0.11088   0.91489   0.20329
S          S       0.22167   0.01386   0.40971   0.21614
O          O       0.51945   0.73375   0.17046  -0.81436
O          O       0.31375   0.80956   0.06236  -0.59659
O          O       0.30401   0.67958   0.09144  -0.56479
O          O       0.84789   0.62977   0.59824  -0.67544
O          O       0.55340   0.61494   0.05954  -0.61805
O          O       0.79494   0.81035   0.56805  -0.60123
O          O       0.89599   0.50718   0.56002  -0.60673
O          O       0.66792   0.15900   0.27589  -0.63339
O          O       0.88375   0.12588   0.57539  -0.63110
O          O       0.05869   0.65089   0.73857  -0.68351
O          O       0.11643   0.62350   0.57519  -0.63389
O          O       0.39866   0.09555   0.23840  -0.62320
O          O       0.59025   0.87294   0.10206  -0.61604
O          O       0.12711   0.42901   0.59179  -0.63003
O          O       0.79347   0.65657   0.76900  -0.63551
O          O       0.14248   0.12355   0.59875  -0.67691
O          O       0.97666   0.27697   0.77648  -0.58051
O          O       0.29189   0.78604   0.24429  -0.61129
O          O       0.21049   0.15673   0.76857  -0.63024
O          O       0.40028   0.99215   0.09734  -0.66920
O          O       0.33272   0.65949   0.27573  -0.63193
O          O       0.46165   0.35229   0.28427  -0.59792
O          O       0.20699   0.30946   0.56817  -0.61152
O          O       0.59956   0.59279   0.23858  -0.62903
O          O       0.05118   0.74750   0.60257  -0.59407
O          O       0.94198   0.15197   0.73854  -0.66961
O          O       0.44651   0.11506   0.05996  -0.61713
O          O       0.94615   0.25056   0.60265  -0.58955
O          O       0.41006   0.37289   0.10216  -0.62443
O          O       0.54125   0.85251   0.28390  -0.61041
O          O       0.87664   0.96503   0.77320  -0.62806
O          O       0.66437   0.99544   0.07945  -0.62807
O          O       0.79276   0.85080   0.73488  -0.60593
O          O       0.32562   0.97258   0.26146  -0.62516
O          O       0.13695   0.03514   0.74264  -0.59959
O          O       0.20581   0.35202   0.73488  -0.62869
O          O       0.02315   0.77562   0.77633  -0.58975
O          O       0.48072   0.23389   0.17046  -0.81165
O          O       0.58864   0.97548   0.24641  -0.66627
O          O       0.68640   0.30972   0.06114  -0.59430
O          O       0.40755   0.47208   0.24218  -0.66175
O          O       0.86436   0.53459   0.74258  -0.59896
O          O       0.09792   0.00363   0.55313  -0.59219
O          O       0.67560   0.47122   0.26163  -0.62370
O          O       0.70838   0.28522   0.24278  -0.61132
O          O       0.59973   0.49202   0.09644  -0.67953
O          O       0.33587   0.49533   0.07935  -0.62465
O          O       0.69618   0.18000   0.09138  -0.56513
O          O       0.12313   0.46522   0.77654  -0.63240
O          O       0.86973   0.93111   0.59441  -0.62032

