data_crystal

_audit_creation_method 'AiiDA-DDEC plugin'

_cell_length_a        11.05206
_cell_length_b        14.96065
_cell_length_c        14.95796

_cell_angle_alpha     114.15267
_cell_angle_beta     104.24112
_cell_angle_gamma     104.26239

_symmetry_space_group_name_Hall 'P 1'
_symmetry_space_group_name_H-M  'P 1'

loop_
_symmetry_equiv_pos_as_xyz
 'x,y,z'

loop_
_atom_site_label
_atom_site_type_symbol
_atom_site_fract_x
_atom_site_fract_y
_atom_site_fract_z
_atom_site_charge
Fe         Fe     -0.00021  -0.00021   0.50005   0.71770
Fe         Fe      0.00042   0.50028   0.00024   0.71800
Fe         Fe      0.50002   0.49995   0.50016   0.71830
H          H       0.78139   0.88642   0.55320   0.24654
H          H       0.76650   0.94255   0.25706   0.14467
H          H       0.69209   0.03061   0.31595   0.13776
H          H       0.58639   0.90121   0.20456   0.13428
H          H       0.52223   0.80739   0.55091   0.14520
H          H       0.52891   0.68941   0.46018   0.14471
H          H       0.39580   0.72836   0.41899   0.14034
H          H       0.26375   0.97091   0.26863   0.13063
H          H       0.42027   0.98943   0.25329   0.14451
H          H       0.41154   0.99717   0.37280   0.14666
H          H       0.27375   0.51020   0.13413   0.14525
H          H       0.39575   0.58832   0.26771   0.13714
H          H       0.44284   0.58783   0.16317   0.14175
H          H       0.11591   0.77383   0.13931   0.23539
H          H       0.21872   0.11374   0.44692   0.24638
H          H       0.23348   0.05715   0.74280   0.14434
H          H       0.30792   0.96918   0.68378   0.13739
H          H       0.41354   0.09833   0.79535   0.13418
H          H       0.47889   0.19251   0.44935   0.14515
H          H       0.47042   0.31009   0.53917   0.14464
H          H       0.60439   0.27242   0.58156   0.14009
H          H       0.73623   0.02911   0.73150   0.13067
H          H       0.57957   0.01077   0.74669   0.14437
H          H       0.58856   0.00281   0.62715   0.14683
H          H       0.72613   0.48982   0.86602   0.14500
H          H       0.60398   0.41186   0.73253   0.13686
H          H       0.55714   0.41219   0.83708   0.14145
H          H       0.88401   0.22595   0.86035   0.23513
H          H       0.89488   0.66649   0.11311   0.24644
H          H       0.82360   0.31428   0.05697   0.14514
H          H       0.66093   0.28515   0.96941   0.13764
H          H       0.68533   0.30333   0.09882   0.13420
H          H       0.71549   0.74399   0.19291   0.14563
H          H       0.84037   0.77086   0.31048   0.14430
H          H       0.66830   0.69134   0.27218   0.14034
H          H       0.29317   0.29738   0.02912   0.12968
H          H       0.43169   0.26411   0.01083   0.14438
H          H       0.41441   0.37543   0.00271   0.14652
H          H       0.76362   0.62489   0.48991   0.14523
H          H       0.80927   0.67887   0.41115   0.13749
H          H       0.85482   0.57439   0.41283   0.14227
H          H       0.34204   0.36589   0.22612   0.23595
H          H       0.10503   0.33330   0.88662   0.24635
H          H       0.17656   0.68568   0.94293   0.14448
H          H       0.33923   0.71488   0.03067   0.13756
H          H       0.31493   0.69654   0.90117   0.13447
H          H       0.28497   0.25611   0.80710   0.14567
H          H       0.15974   0.22903   0.68970   0.14447
H          H       0.33163   0.30865   0.72767   0.14062
H          H       0.70728   0.70252   0.97065   0.13034
H          H       0.56900   0.73602   0.98909   0.14463
H          H       0.58611   0.62465   0.99724   0.14710
H          H       0.23598   0.37523   0.51002   0.14528
H          H       0.19089   0.32161   0.58915   0.13722
H          H       0.14506   0.42587   0.58723   0.14226
H          H       0.65804   0.63445   0.77386   0.23562
H          H       0.22788   0.44679   0.33292   0.24674
H          H       0.50918   0.74208   0.68562   0.14515
H          H       0.37530   0.68418   0.71478   0.13797
H          H       0.38252   0.79560   0.69665   0.13401
H          H       0.97130   0.44912   0.25602   0.14478
H          H       0.06920   0.53998   0.22926   0.14368
H          H       0.97646   0.58086   0.30882   0.14015
H          H       0.99546   0.73147   0.70261   0.13102
H          H       0.16716   0.74654   0.73573   0.14447
H          H       0.03837   0.62700   0.62441   0.14688
H          H       0.13789   0.86434   0.37427   0.14523
H          H       0.13200   0.73238   0.32172   0.13702
H          H       0.28083   0.84002   0.42623   0.14137
H          H       0.97658   0.86049   0.63456   0.23564
H          H       0.77198   0.55335   0.66691   0.24685
H          H       0.49095   0.25831   0.31463   0.14510
H          H       0.62461   0.31613   0.28525   0.13834
H          H       0.61743   0.20465   0.30325   0.13463
H          H       0.02941   0.55067   0.74357   0.14483
H          H       0.93119   0.46066   0.77105   0.14396
H          H       0.02284   0.41856   0.69080   0.14015
H          H       0.00399   0.26866   0.29722   0.13113
H          H       0.83229   0.25370   0.26402   0.14439
H          H       0.96095   0.37292   0.37577   0.14632
H          H       0.86012   0.13400   0.62400   0.14519
H          H       0.87074   0.26728   0.67912   0.13659
H          H       0.71959   0.16217   0.57483   0.14091
H          H       0.02328   0.13938   0.36545   0.23626
C          C       0.01549   0.08811   0.73928   0.24908
C          C       0.66628   0.90321   0.35045   0.21869
C          C       0.54507   0.83490   0.34365  -0.14145
C          C       0.58517   0.81872   0.43026   0.20938
C          C       0.67886   0.94650   0.27784  -0.43680
C          C       0.50393   0.75786   0.46705  -0.45486
C          C       0.32430   0.83908   0.24156   0.20371
C          C       0.40580   0.78676   0.26442  -0.15795
C          C       0.32050   0.67638   0.20123   0.21066
C          C       0.35582   0.95500   0.28599  -0.43817
C          C       0.35976   0.58563   0.19113  -0.44845
C          C       0.98453   0.91204   0.26076   0.24952
C          C       0.33378   0.09678   0.64958   0.21796
C          C       0.45501   0.16499   0.65629  -0.14158
C          C       0.41493   0.18119   0.56970   0.20919
C          C       0.32115   0.05328   0.72204  -0.43632
C          C       0.49626   0.24214   0.53298  -0.45417
C          C       0.67569   0.16091   0.75839   0.20297
C          C       0.59424   0.21322   0.73553  -0.15733
C          C       0.67952   0.32363   0.79879   0.20934
C          C       0.64417   0.04502   0.71398  -0.43810
C          C       0.64014   0.41438   0.80901  -0.44803
C          C       0.92731   0.65107   0.91149   0.24834
C          C       0.76307   0.44716   0.09669   0.21979
C          C       0.71027   0.50886   0.16499  -0.14200
C          C       0.76647   0.61161   0.18106   0.21121
C          C       0.73220   0.33124   0.05338  -0.43723
C          C       0.74661   0.70948   0.24224  -0.45515
C          C       0.48547   0.40271   0.16102   0.20434
C          C       0.61926   0.47790   0.21327  -0.15842
C          C       0.64434   0.52502   0.32368   0.21298
C          C       0.40116   0.33099   0.04510  -0.43731
C          C       0.77459   0.60540   0.41442  -0.45072
C          C       0.07255   0.34881   0.08825   0.24851
C          C       0.23711   0.55283   0.90338   0.21883
C          C       0.28992   0.49121   0.83504  -0.14125
C          C       0.23375   0.38845   0.81900   0.21138
C          C       0.26801   0.66876   0.94668  -0.43645
C          C       0.25353   0.29056   0.75779  -0.45571
C          C       0.51478   0.59729   0.83893   0.20503
C          C       0.38089   0.52223   0.78671  -0.15884
C          C       0.35570   0.47525   0.67627   0.21265
C          C       0.59931   0.66903   0.95480  -0.43916
C          C       0.22534   0.39493   0.58563  -0.44968
C          C       0.27649   0.26059   0.34910   0.25000
C          C       0.31574   0.64943   0.55275   0.21892
C          C       0.20142   0.65628   0.49123  -0.14114
C          C       0.15454   0.56958   0.38845   0.20854
C          C       0.40087   0.72197   0.66870  -0.43750
C          C       0.03685   0.53300   0.29063  -0.45255
C          C       0.08256   0.75818   0.59725   0.20497
C          C       0.14137   0.73548   0.52216  -0.15817
C          C       0.11956   0.79891   0.47517   0.21168
C          C       0.06976   0.71386   0.66886  -0.43994
C          C       0.16950   0.80929   0.39476  -0.44792
C          C       0.72385   0.73957   0.65110   0.25036
C          C       0.68421   0.35067   0.44725   0.21849
C          C       0.79848   0.34377   0.50876  -0.14010
C          C       0.84533   0.43046   0.61158   0.20857
C          C       0.59915   0.27829   0.33131  -0.43845
C          C       0.96319   0.46701   0.70930  -0.45283
C          C       0.91697   0.24162   0.40248   0.20394
C          C       0.85832   0.26443   0.47769  -0.15824
C          C       0.88033   0.20106   0.52472   0.21143
C          C       0.92959   0.28608   0.33093  -0.43872
C          C       0.83072   0.19071   0.60524  -0.44786
S          S       0.04090   0.14384   0.86473  -0.28572
S          S       0.95919   0.85625   0.13527  -0.28672
S          S       0.89710   0.72096   0.85594  -0.28586
S          S       0.10287   0.27899   0.14387  -0.28606
S          S       0.17628   0.13520   0.27902  -0.28620
S          S       0.82396   0.86500   0.72101  -0.28648
N          N      -0.00293   0.04557   0.64718  -0.49850
N          N       0.77378   0.92568   0.43469  -0.22876
N          N       0.72141   0.87287   0.48099  -0.14267
N          N       0.19422   0.66153   0.14451  -0.25018
N          N       0.20054   0.76178   0.16976  -0.13970
N          N       0.00283   0.95455   0.35280  -0.49901
N          N       0.22623   0.07443   0.56545  -0.22886
N          N       0.27861   0.12725   0.51913  -0.14244
N          N       0.80573   0.33846   0.85565  -0.24950
N          N       0.79938   0.23818   0.83029  -0.13970
N          N       0.95141   0.60147   0.95399  -0.49818
N          N       0.84810   0.50886   0.07416  -0.22948
N          N       0.84859   0.60801   0.12689  -0.14404
N          N       0.53294   0.48309   0.33859  -0.25148
N          N       0.43901   0.40806   0.23832  -0.14150
N          N       0.04851   0.39849   0.04585  -0.49859
N          N       0.15216   0.49114   0.92598  -0.23035
N          N       0.15159   0.39196   0.87314  -0.14310
N          N       0.46713   0.51712   0.66135  -0.25059
N          N       0.56121   0.59193   0.76163  -0.14097
N          N       0.35034   0.35264   0.39893  -0.49963
N          N       0.33876   0.56507   0.49088  -0.22952
N          N       0.23996   0.51878   0.39182  -0.14303
N          N       0.05016   0.85575   0.51726  -0.25078
N          N       0.03094   0.83023   0.59206  -0.14093
N          N       0.65006   0.64748   0.60143  -0.49980
N          N       0.66108   0.43493   0.50916  -0.22956
N          N       0.75969   0.48111   0.60828  -0.14336
N          N       0.94990   0.14437   0.48276  -0.25090
N          N       0.96887   0.16972   0.40782  -0.14108

