data_crystal

_audit_creation_method 'AiiDA-DDEC plugin'

_cell_length_a         9.23038
_cell_length_b         9.69200
_cell_length_c        31.01347

_cell_angle_alpha     93.11892
_cell_angle_beta     90.00000
_cell_angle_gamma     90.00000

_symmetry_space_group_name_Hall 'P 1'
_symmetry_space_group_name_H-M  'P 1'

loop_
_symmetry_equiv_pos_as_xyz
 'x,y,z'

loop_
_atom_site_label
_atom_site_type_symbol
_atom_site_fract_x
_atom_site_fract_y
_atom_site_fract_z
_atom_site_charge
Zn         Zn      0.72647   0.47557   0.86044   1.03791
Zn         Zn      0.44884   0.29411   0.96001   0.92888
Zn         Zn      0.68543   0.55865   0.68969   1.03911
Zn         Zn      0.22647   0.52442   0.63956   1.03781
Zn         Zn      0.94883   0.70588   0.53999   0.92866
Zn         Zn      0.18543   0.44134   0.81031   1.03885
Zn         Zn      0.27354   0.52444   0.13956   1.03782
Zn         Zn      0.55115   0.70588   0.03999   0.92890
Zn         Zn      0.31459   0.44133   0.31031   1.03885
Zn         Zn      0.77354   0.47556   0.36045   1.03783
Zn         Zn      0.05115   0.29412   0.46001   0.92874
Zn         Zn      0.81459   0.55867   0.18969   1.03882
P          P       0.87804   0.54121   0.77713   1.21676
P          P       0.92674   0.25098   0.81756   1.19796
P          P       0.62988   0.58566   0.94996   1.20303
P          P       0.38727   0.47862   0.88780   1.19531
P          P       0.37804   0.45878   0.72288   1.21645
P          P       0.42674   0.74901   0.68244   1.19836
P          P       0.12989   0.41433   0.55005   1.20296
P          P       0.88727   0.52137   0.61221   1.19501
P          P       0.12196   0.45879   0.22287   1.21655
P          P       0.07326   0.74904   0.18243   1.19823
P          P       0.37012   0.41432   0.05005   1.20305
P          P       0.61273   0.52137   0.11221   1.19481
P          P       0.62195   0.54121   0.27713   1.21680
P          P       0.57326   0.25096   0.31757   1.19821
P          P       0.87012   0.58568   0.44996   1.20282
P          P       0.11274   0.47863   0.38779   1.19476
H          H       0.64804   0.35541   0.74752   0.35501
H          H       0.34462   0.60646   0.97780   0.36052
H          H       0.22394   0.93010   0.69745   0.27966
H          H       0.87322   0.35260   0.70110   0.11992
H          H       0.04134   0.35730   0.72744   0.12093
H          H       0.72697   0.11213   0.70359   0.13559
H          H       0.77016   0.86460   0.68120   0.14740
H          H       0.02861   0.77554   0.67938   0.12422
H          H       0.18868   0.16047   0.72156   0.12879
H          H       0.52086   0.71496   0.86335   0.11849
H          H       0.35730   0.78494   0.88406   0.13838
H          H       0.75346   0.81597   0.87949   0.13684
H          H       0.88006   0.04080   0.89771   0.14199
H          H       0.74148   0.23265   0.93555   0.11545
H          H       0.36796   0.99256   0.93820   0.11466
H          H       0.14804   0.64458   0.75248   0.35522
H          H       0.84462   0.39353   0.52220   0.36016
H          H       0.72394   0.06989   0.80255   0.27971
H          H       0.37322   0.64739   0.79890   0.12015
H          H       0.54134   0.64269   0.77257   0.12116
H          H       0.22697   0.88786   0.79642   0.13565
H          H       0.27016   0.13539   0.81880   0.14733
H          H       0.52861   0.22445   0.82062   0.12418
H          H       0.68868   0.83952   0.77845   0.12876
H          H       0.02087   0.28503   0.63665   0.11851
H          H       0.85730   0.21505   0.61594   0.13849
H          H       0.25346   0.18402   0.62052   0.13679
H          H       0.38007   0.95919   0.60229   0.14213
H          H       0.24149   0.76734   0.56445   0.11552
H          H       0.86795   0.00743   0.56180   0.11474
H          H       0.35196   0.64459   0.25248   0.35518
H          H       0.65535   0.39352   0.02220   0.36019
H          H       0.77605   0.06990   0.30255   0.27964
H          H       0.12679   0.64739   0.29890   0.12002
H          H       0.95866   0.64269   0.27256   0.12109
H          H       0.27303   0.88787   0.29642   0.13555
H          H       0.22984   0.13540   0.31880   0.14733
H          H       0.97139   0.22447   0.32062   0.12411
H          H       0.81130   0.83955   0.27845   0.12888
H          H       0.47914   0.28503   0.13666   0.11852
H          H       0.64270   0.21505   0.11594   0.13835
H          H       0.24654   0.18403   0.12052   0.13693
H          H       0.11993   0.95920   0.10229   0.14217
H          H       0.25849   0.76734   0.06445   0.11557
H          H       0.63203   0.00742   0.06180   0.11453
H          H       0.85196   0.35541   0.24752   0.35506
H          H       0.15535   0.60648   0.47780   0.36034
H          H       0.27606   0.93009   0.19745   0.27974
H          H       0.62679   0.35261   0.20110   0.11997
H          H       0.45867   0.35731   0.22744   0.12107
H          H       0.77303   0.11212   0.20358   0.13553
H          H       0.72984   0.86460   0.18120   0.14730
H          H       0.47139   0.77552   0.17938   0.12414
H          H       0.31131   0.16045   0.22155   0.12882
H          H       0.97914   0.71497   0.36334   0.11849
H          H       0.14270   0.78495   0.38406   0.13837
H          H       0.74654   0.81597   0.37948   0.13695
H          H       0.61992   0.04080   0.39771   0.14213
H          H       0.75849   0.23265   0.43555   0.11558
H          H       0.13203   0.99257   0.43820   0.11459
C          C       0.85608   0.34624   0.77030  -0.16523
C          C       0.93466   0.30719   0.72718  -0.25884
C          C       0.95341   0.15635   0.71545   0.10550
C          C       0.83661   0.07034   0.70321  -0.06157
C          C       0.86058   0.93229   0.69026  -0.12302
C          C       0.00155   0.88173   0.68912   0.09441
C          C       0.09208   0.10002   0.71353   0.03293
C          C       0.45102   0.63754   0.92350  -0.10259
C          C       0.46816   0.75674   0.89298  -0.24490
C          C       0.55094   0.88534   0.90800   0.08999
C          C       0.69709   0.90075   0.89680  -0.06362
C          C       0.76816   0.02482   0.90715  -0.09658
C          C       0.69181   0.13247   0.92801   0.08649
C          C       0.48182  -0.00213   0.92926   0.02390
C          C       0.35608   0.65375   0.72970  -0.16510
C          C       0.43466   0.69280   0.77282  -0.25894
C          C       0.45341   0.84364   0.78455   0.10577
C          C       0.33662   0.92965   0.79680  -0.06155
C          C       0.36058   0.06770   0.80974  -0.12325
C          C       0.50155   0.11825   0.81088   0.09442
C          C       0.59208   0.89996   0.78648   0.03311
C          C       0.95101   0.36244   0.57651  -0.10265
C          C       0.96816   0.24325   0.60702  -0.24476
C          C       0.05094   0.11465   0.59200   0.08980
C          C       0.19709   0.09924   0.60320  -0.06354
C          C       0.26816   0.97517   0.59285  -0.09677
C          C       0.19182   0.86752   0.57200   0.08677
C          C       0.98182   0.00212   0.57075   0.02378
C          C       0.14392   0.65376   0.22970  -0.16494
C          C       0.06534   0.69281   0.27282  -0.25880
C          C       0.04658   0.84364   0.28455   0.10545
C          C       0.16338   0.92966   0.29680  -0.06161
C          C       0.13941   0.06771   0.30974  -0.12305
C          C      -0.00155   0.11827   0.31088   0.09427
C          C       0.90791   0.89998   0.28648   0.03310
C          C       0.54898   0.36245   0.07651  -0.10268
C          C       0.53184   0.24325   0.10702  -0.24467
C          C       0.44905   0.11465   0.09201   0.08980
C          C       0.30291   0.09924   0.10321  -0.06372
C          C       0.23183   0.97517   0.09286  -0.09658
C          C       0.30817   0.86752   0.07200   0.08664
C          C       0.51817   0.00211   0.07075   0.02409
C          C       0.64391   0.34624   0.27030  -0.16497
C          C       0.56534   0.30719   0.22718  -0.25889
C          C       0.54658   0.15635   0.21545   0.10553
C          C       0.66338   0.07033   0.20320  -0.06162
C          C       0.63941   0.93228   0.19026  -0.12299
C          C       0.49845   0.88173   0.18912   0.09442
C          C       0.40792   0.10002   0.21352   0.03318
C          C       0.04898   0.63755   0.42349  -0.10259
C          C       0.03184   0.75675   0.39298  -0.24479
C          C       0.94905   0.88535   0.40800   0.08973
C          C       0.80290   0.90076   0.39680  -0.06370
C          C       0.73183   0.02482   0.40714  -0.09653
C          C       0.80817   0.13248   0.42800   0.08658
C          C       0.01817  -0.00212   0.42925   0.02410
N          N       0.11259   0.96654   0.70052  -0.11894
N          N       0.55054   0.11943   0.93887  -0.25214
N          N       0.61259   0.03345   0.79948  -0.11926
N          N       0.05055   0.88056   0.56113  -0.25218
N          N       0.88741   0.03346   0.29948  -0.11895
N          N       0.44944   0.88056   0.06113  -0.25235
N          N       0.38741   0.96653   0.20052  -0.11916
N          N       0.94944   0.11944   0.43887  -0.25237
O          O       0.77855   0.59616   0.81398  -0.72723
O          O       0.83519   0.59830   0.73379  -0.71465
O          O       0.04201   0.56938   0.78589  -0.72968
O          O       0.85664   0.31920   0.85866  -0.72559
O          O       0.09349   0.26666   0.81794  -0.71295
O          O       0.88440   0.10013   0.80935  -0.66943
O          O       0.70701   0.31229   0.77061  -0.44524
O          O       0.74363   0.59067   0.91438  -0.67270
O          O       0.60793   0.44106   0.96793  -0.76213
O          O       0.65217   0.70129   0.98511  -0.67824
O          O       0.27128   0.54213   0.85944  -0.68288
O          O       0.52009   0.42375   0.86249  -0.74516
O          O       0.32213   0.37544   0.91818  -0.68713
O          O       0.34790   0.67425   0.95473  -0.34941
O          O       0.27855   0.40383   0.68602  -0.72705
O          O       0.33519   0.40169   0.76621  -0.71413
O          O       0.54201   0.43061   0.71411  -0.72952
O          O       0.35664   0.68079   0.64134  -0.72588
O          O       0.59349   0.73333   0.68206  -0.71330
O          O       0.38440   0.89986   0.69065  -0.66985
O          O       0.20701   0.68770   0.72940  -0.44564
O          O       0.24363   0.40932   0.58562  -0.67249
O          O       0.10793   0.55893   0.53207  -0.76249
O          O       0.15217   0.29870   0.51489  -0.67800
O          O       0.77128   0.45785   0.64056  -0.68248
O          O       0.02009   0.57624   0.63751  -0.74511
O          O       0.82212   0.62455   0.58182  -0.68730
O          O       0.84790   0.32574   0.54528  -0.34912
O          O       0.22146   0.40385   0.18602  -0.72721
O          O       0.16481   0.40170   0.26621  -0.71427
O          O       0.95799   0.43061   0.21411  -0.72950
O          O       0.14336   0.68081   0.14133  -0.72588
O          O       0.90651   0.73337   0.18206  -0.71302
O          O       0.11560   0.89989   0.19065  -0.66975
O          O       0.29299   0.68770   0.22939  -0.44562
O          O       0.25636   0.40932   0.08562  -0.67256
O          O       0.39207   0.55891   0.03207  -0.76248
O          O       0.34782   0.29869   0.01489  -0.67803
O          O       0.72873   0.45786   0.14056  -0.68259
O          O       0.47993   0.57624   0.13753  -0.74482
O          O       0.67787   0.62455   0.08182  -0.68734
O          O       0.65210   0.32574   0.04528  -0.34923
O          O       0.72145   0.59614   0.31398  -0.72733
O          O       0.66481   0.59830   0.23379  -0.71440
O          O       0.45799   0.56939   0.28589  -0.72957
O          O       0.64336   0.31919   0.35867  -0.72580
O          O       0.40651   0.26663   0.31794  -0.71293
O          O       0.61560   0.10011   0.30935  -0.66961
O          O       0.79299   0.31230   0.27061  -0.44553
O          O       0.75636   0.59067   0.41439  -0.67250
O          O       0.89207   0.44109   0.46793  -0.76224
O          O       0.84781   0.70131   0.48511  -0.67802
O          O       0.22873   0.54214   0.35944  -0.68263
O          O       0.97993   0.42376   0.36248  -0.74490
O          O       0.17787   0.37545   0.41818  -0.68718
O          O       0.15210   0.67425   0.45472  -0.34940

