data_crystal

_audit_creation_method 'AiiDA-DDEC plugin'

_cell_length_a        17.48995
_cell_length_b        17.36532
_cell_length_c        17.12047

_cell_angle_alpha     104.88218
_cell_angle_beta     106.15582
_cell_angle_gamma     117.39783

_symmetry_space_group_name_Hall 'P 1'
_symmetry_space_group_name_H-M  'P 1'

loop_
_symmetry_equiv_pos_as_xyz
 'x,y,z'

loop_
_atom_site_label
_atom_site_type_symbol
_atom_site_fract_x
_atom_site_fract_y
_atom_site_fract_z
_atom_site_charge
Zn         Zn      0.59221   0.21142   0.11889   0.95531
Zn         Zn      0.65953   0.24656   0.32545   0.27549
Zn         Zn      0.09253   0.47434   0.88331   0.96006
Zn         Zn      0.88664   0.31284   0.65992   0.31200
Zn         Zn      0.16315   0.09402   0.60930   0.97229
Zn         Zn      0.24584   0.97604   0.56269   0.40665
Zn         Zn      0.47597   0.58871   0.37908   0.95835
Zn         Zn      0.33691   0.65957   0.40168   0.27613
Zn         Zn      0.09039   0.97588   0.38662   0.95879
Zn         Zn      0.15615   0.81714   0.45003   0.30908
Zn         Zn      0.59057   0.66805   0.60932   0.97905
Zn         Zn      0.46940   0.74585   0.54652   0.48735
Zn         Zn      0.66990   0.06294   0.07467   0.98266
Zn         Zn      0.74322   0.18805   0.27708   0.47345
Zn         Zn      0.98487   0.59740   0.91755   0.97943
Zn         Zn      0.92311   0.46838   0.72172   0.40192
Zn         Zn      0.79881   0.29317   0.15581   1.00197
Zn         Zn      0.14319   0.64887   0.84703   0.99489
Zn         Zn      0.29806   0.15009   0.50985   1.00326
Zn         Zn      0.64830   0.79386   0.50476   0.99597
H          H       0.39643   0.12701   0.31632   0.12868
H          H       0.12415   0.84609   0.15882   0.13811
H          H       0.31649   0.94752   0.04142   0.13364
H          H       0.80885   0.09259   0.67760   0.13028
H          H       0.65660   0.97226   0.81969   0.13306
H          H       0.90819   0.26894   0.96010   0.13456
H          H       0.11565   0.80940   0.69984   0.12672
H          H       0.83466   0.65260   0.68826   0.13550
H          H       0.92551   0.90127   0.63443   0.13582
H          H       0.08918   0.40542   0.28185   0.12939
H          H       0.98091   0.15324   0.33041   0.13442
H          H       0.27737   0.31935   0.37823   0.13264
H          H       0.90280   0.58591   0.28395   0.13109
H          H       0.63381   0.47017   0.30007   0.13369
H          H       0.82777   0.77818   0.39259   0.13124
H          H       0.29600   0.61866   0.69893   0.12695
H          H       0.17648   0.34853   0.71552   0.14056
H          H       0.38765   0.43228   0.61617   0.13605
H          H       0.61862   0.90512   0.31271   0.13085
H          H       0.33914   0.62961   0.16083   0.13666
H          H       0.42610   0.82171   0.03900   0.13264
H          H       0.60345   0.30596   0.68310   0.12726
H          H       0.47973   0.16203   0.82998   0.13463
H          H       0.78262   0.39775   0.96423   0.13185
H          H       0.54161   0.07915   0.39966   0.41215
H          H       0.62034   0.07936   0.37444   0.39156
H          H       0.68696   0.16984   0.54183   0.38982
H          H       0.71377   0.24514   0.63620   0.38821
H          H       0.15713   0.67430   0.49963   0.39184
H          H       0.12231   0.72974   0.55066   0.39526
H          H       0.16733   0.54516   0.48132   0.40801
H          H       0.27517   0.63178   0.54708   0.37969
C          C       0.45924   0.12554   0.19028   0.58056
C          C       0.36586   0.04638   0.17941  -0.06136
C          C       0.34524   0.05979   0.25333  -0.09523
C          C       0.25808   0.98823   0.24580  -0.03663
C          C       0.19209   0.90170   0.16476  -0.07781
C          C       0.21386   0.88614   0.09175  -0.04625
C          C       0.30028   0.95912   0.09852  -0.08057
C          C       0.23535   0.00646   0.32401   0.59020
C          C       0.14579   0.79058   0.00776   0.59095
C          C       0.94207   0.27390   0.81313   0.58676
C          C       0.86697   0.19000   0.81851  -0.05924
C          C       0.80164   0.10083   0.73969  -0.06761
C          C       0.72582   0.02251   0.73990  -0.04859
C          C       0.71591   0.03280   0.81957  -0.07710
C          C       0.78226   0.12108   0.89928  -0.04757
C          C       0.85764   0.19997   0.89868  -0.07186
C          C       0.65571   0.92868   0.65494   0.59156
C          C       0.76996   0.13109   0.98351   0.58638
C          C       0.10057   0.94032   0.65088   0.57910
C          C       0.02752   0.86242   0.66363  -0.04662
C          C       0.04650   0.79940   0.68727  -0.08875
C          C       0.97717   0.72414   0.69639  -0.04750
C          C       0.88869   0.71173   0.68194  -0.07838
C          C       0.87048   0.77614   0.66053  -0.04534
C          C       0.93993   0.85159   0.65145  -0.07268
C          C      -0.00172   0.65821   0.72334   0.57488
C          C       0.77666   0.76349   0.64559   0.58667
C          C       0.27310   0.45919   0.33326   0.58547
C          C       0.19222   0.37171   0.32970  -0.06350
C          C       0.10107   0.35637   0.30305  -0.09161
C          C       0.02521   0.27860   0.30404  -0.05082
C          C       0.03977   0.21413   0.33006  -0.07896
C          C       0.13055   0.22859   0.35620  -0.04038
C          C       0.20676   0.30776   0.35652  -0.07723
C          C       0.92991   0.26670   0.27719   0.58171
C          C       0.14914   0.16221   0.38682   0.59108
C          C       0.96525   0.77445   0.34820   0.58890
C          C       0.87389   0.69103   0.33702  -0.05592
C          C       0.85266   0.59733   0.30186  -0.07528
C          C       0.76612   0.51763   0.28781  -0.04532
C          C       0.70150   0.53198   0.31169  -0.08252
C          C       0.72518   0.62634   0.35190  -0.04644
C          C       0.81061   0.70540   0.36312  -0.08137
C          C       0.74397   0.41810   0.24533   0.59072
C          C       0.66174   0.64579   0.38457   0.59551
C          C       0.42002   0.60560   0.63553   0.59786
C          C       0.34896   0.53320   0.65430  -0.06184
C          C       0.29148   0.55180   0.68767  -0.09885
C          C       0.23122   0.48611   0.71184  -0.03703
C          C       0.22388   0.39953   0.69724  -0.07636
C          C       0.27826   0.37909   0.66046  -0.04171
C          C       0.34297   0.44711   0.64150  -0.08378
C          C       0.17871   0.51021   0.75830   0.59020
C          C       0.26708   0.28478   0.64173   0.58897
C          C       0.60375   0.96571   0.17911   0.59737
C          C       0.53055   0.87401   0.17629  -0.05359
C          C       0.54984   0.85399   0.25077  -0.09722
C          C       0.48148   0.76501   0.24427  -0.04752
C          C       0.39207   0.69834   0.16539  -0.08246
C          C       0.37128   0.72030   0.09247  -0.03805
C          C       0.44168   0.80684   0.09720  -0.08329
C          C       0.50645   0.74099   0.32122   0.58481
C          C       0.27494   0.65357   0.00848   0.58829
C          C       0.79042   0.43267   0.82110   0.59035
C          C       0.70279   0.35987   0.82351  -0.04668
C          C       0.61232   0.29872   0.74573  -0.09640
C          C       0.53189   0.22828   0.74850  -0.04288
C          C       0.54220   0.21775   0.82869  -0.08160
C          C       0.63287   0.27858   0.90631  -0.04202
C          C       0.71257   0.35033   0.90372  -0.08447
C          C       0.43517   0.16370   0.66525   0.58249
C          C       0.64891   0.26776   0.99234   0.59239
O          O       0.47331   0.11697   0.11991  -0.52487
O          O       0.51976   0.19674   0.27052  -0.45305
O          O       0.30605   0.07218   0.40190  -0.56334
O          O       0.14550   0.95353   0.30423  -0.55465
O          O       0.06705   0.72915   0.00856  -0.55615
O          O       0.16777   0.77545   0.94420  -0.53874
O          O       0.00266   0.35461   0.88634  -0.52936
O          O       0.94051   0.26122   0.73552  -0.47057
O          O       0.67420   0.91888   0.58776  -0.52889
O          O       0.58038   0.86427   0.65647  -0.48524
O          O       0.70055   0.05060   0.97662  -0.55524
O          O       0.82378   0.21152   0.05365  -0.54628
O          O       0.08633   0.00672   0.64736  -0.54261
O          O       0.16937   0.93736   0.64419  -0.50440
O          O       0.08440   0.68107   0.75007  -0.52762
O          O       0.92609   0.58306   0.71772  -0.48141
O          O       0.71462   0.68904   0.65188  -0.54505
O          O       0.76041   0.82233   0.62824  -0.55929
O          O       0.35525   0.47057   0.35518  -0.52915
O          O       0.25501   0.51829   0.31576  -0.45244
O          O       0.92177   0.32508   0.24927  -0.52901
O          O       0.86383   0.19915   0.28533  -0.48296
O          O       0.07565   0.08156   0.37128  -0.54971
O          O       0.23799   0.19328   0.42652  -0.54844
O          O       0.97316   0.85485   0.36354  -0.53449
O          O       0.02923   0.76019   0.34176  -0.47462
O          O       0.81275   0.41236   0.24217  -0.54549
O          O       0.65572   0.34542   0.21558  -0.56564
O          O       0.57509   0.57307   0.35784  -0.54816
O          O       0.70033   0.73409   0.43741  -0.54525
O          O       0.49636   0.60585   0.64833  -0.53636
O          O       0.40253   0.66112   0.60994  -0.50030
O          O       0.17307   0.58007   0.75654  -0.54962
O          O       0.14492   0.45738   0.79645  -0.56691
O          O       0.19703   0.22317   0.65234  -0.55046
O          O       0.32285   0.27024   0.61781  -0.54896
O          O       0.60305   0.95766   0.10180  -0.53844
O          O       0.65977   0.04255   0.25470  -0.49941
O          O       0.58504   0.80696   0.39311  -0.53882
O          O       0.44499   0.65439   0.30784  -0.56106
O          O       0.21154   0.57344   0.00384  -0.54209
O          O       0.26467   0.68357   0.94859  -0.54808
O          O       0.85664   0.50884   0.89849  -0.54603
O          O       0.79482   0.41514   0.74664  -0.50403
O          O       0.42625   0.18481   0.59877  -0.53238
O          O       0.36887   0.09140   0.66807  -0.47121
O          O       0.57378   0.21330   0.00003  -0.54191
O          O       0.73695   0.31388   0.05136  -0.54598
O          O       0.68711   0.17690   0.14919  -0.95635
O          O       0.61120   0.11710   0.41962  -0.73952
O          O       0.03281   0.54247   0.85211  -0.93859
O          O       0.72897   0.20089   0.60850  -0.66995
O          O       0.18872   0.04386   0.51561  -0.93709
O          O       0.11596   0.69950   0.49057  -0.66644
O          O       0.53758   0.68516   0.50774  -0.95472
O          O       0.21368   0.61366   0.50032  -0.74916

