data_crystal

_audit_creation_method 'AiiDA-DDEC plugin'

_cell_length_a         9.23027
_cell_length_b        15.66778
_cell_length_c        22.07637

_cell_angle_alpha     102.29870
_cell_angle_beta     101.43114
_cell_angle_gamma     104.83325

_symmetry_space_group_name_Hall 'P 1'
_symmetry_space_group_name_H-M  'P 1'

loop_
_symmetry_equiv_pos_as_xyz
 'x,y,z'

loop_
_atom_site_label
_atom_site_type_symbol
_atom_site_fract_x
_atom_site_fract_y
_atom_site_fract_z
_atom_site_charge
Gd         Gd      0.51152   0.85826   0.80810   2.13529
Gd         Gd      0.02882   0.90675   0.85384   2.11893
Gd         Gd      0.48849   0.14174   0.19190   2.13526
Gd         Gd      0.97119   0.09326   0.14616   2.11903
H          H       0.86465   0.83854   0.67302   0.11353
H          H       0.72472   0.83748   0.56421   0.12708
H          H       0.30146   0.92521   0.62723   0.12958
H          H       0.65061   0.77915   0.44833   0.12601
H          H       0.65578   0.89503   0.48354   0.10729
H          H       0.67565   0.86126   0.40345   0.12248
H          H       0.97143   0.84364   0.37072   0.12681
H          H       0.95183   0.90693   0.27509   0.11811
H          H       0.44918   0.01185   0.32104   0.11374
H          H       0.47133   0.95233   0.41877   0.11977
H          H       0.98291   0.66829   0.91480   0.11385
H          H       0.91493   0.51202   0.93228   0.12156
H          H       0.27433   0.45424   0.84723   0.12248
H          H       0.34443   0.61267   0.83210   0.13127
H          H       0.07510   0.24322   0.01429   0.14450
H          H       0.49431   0.16739   0.02905   0.12733
H          H       0.60051   0.28598   0.97734   0.13448
H          H       0.69112   0.43413   0.97277   0.10673
H          H       0.60117   0.35118   0.89535   0.10890
H          H       0.61432   0.46956   0.90454   0.12254
H          H       0.57251   0.55662   0.80489   0.14483
H          H       0.01061   0.56238   0.70449   0.13093
H          H       0.93777   0.70351   0.73577   0.11969
H          H       0.95901   0.40665   0.64508   0.11883
H          H       0.10106   0.44272   0.72236   0.11278
H          H       0.99352   0.32378   0.68611   0.12488
H          H       0.23854   0.27627   0.79712   0.12965
H          H       0.20195   0.15408   0.85328   0.12543
H          H       0.59366   0.08549   0.80359   0.12325
H          H       0.63226   0.20789   0.74647   0.12623
H          H       0.52700   0.72872   0.67300   0.43086
H          H       0.42286   0.79111   0.65866   0.42351
H          H       0.13536   0.16146   0.32698   0.11370
H          H       0.27529   0.16253   0.43579   0.12724
H          H       0.69855   0.07479   0.37277   0.12942
H          H       0.34939   0.22085   0.55167   0.12616
H          H       0.34423   0.10497   0.51646   0.10720
H          H       0.32436   0.13875   0.59655   0.12257
H          H       0.02858   0.15636   0.62928   0.12688
H          H       0.04817   0.09307   0.72491   0.11829
H          H       0.55083   0.98816   0.67896   0.11360
H          H       0.52868   0.04767   0.58123   0.11965
H          H       0.01710   0.33172   0.08520   0.11385
H          H       0.08508   0.48798   0.06772   0.12157
H          H       0.72568   0.54576   0.15277   0.12243
H          H       0.65558   0.38734   0.16791   0.13121
H          H       0.92491   0.75679   0.98571   0.14469
H          H       0.50570   0.83262   0.97096   0.12729
H          H       0.39950   0.71403   0.02266   0.13431
H          H       0.30889   0.56587   0.02723   0.10662
H          H       0.39884   0.64882   0.10465   0.10914
H          H       0.38569   0.53044   0.09547   0.12254
H          H       0.42749   0.44338   0.19511   0.14483
H          H       0.98940   0.43762   0.29551   0.13086
H          H       0.06224   0.29650   0.26424   0.11953
H          H       0.04100   0.59336   0.35492   0.11892
H          H       0.89895   0.55729   0.27765   0.11251
H          H       0.00649   0.67622   0.31389   0.12489
H          H       0.76147   0.72374   0.20288   0.12964
H          H       0.79806   0.84592   0.14672   0.12545
H          H       0.40635   0.91451   0.19641   0.12320
H          H       0.36774   0.79211   0.25353   0.12611
H          H       0.47300   0.27128   0.32700   0.43084
H          H       0.57715   0.20890   0.34134   0.42358
C          C       0.17843   0.87608   0.72062   0.64687
C          C       0.09238   0.88077   0.65768  -0.06543
C          C       0.92960   0.85726   0.63916  -0.07000
C          C       0.85077   0.85636   0.57807  -0.21673
C          C       0.93358   0.87962   0.53377   0.18628
C          C       0.09767   0.90543   0.55373   0.14618
C          C       0.17534   0.90577   0.61406  -0.18906
C          C       0.70201   0.85187   0.45165  -0.19043
C          C       0.22252   0.89331   0.39857  -0.07496
C          C       0.07494   0.87981   0.35912  -0.09053
C          C       0.06436   0.91485   0.30612  -0.06749
C          C       0.19967   0.96177   0.29246  -0.02645
C          C       0.34621   0.97502   0.33277  -0.08697
C          C       0.35877   0.94139   0.38655  -0.09170
C          C       0.19031   0.00072   0.23591   0.65400
C          C       0.20460   0.74318   0.86225   0.66215
C          C       0.16743   0.64945   0.87283  -0.03218
C          C       0.04690   0.62145   0.90099  -0.07414
C          C       0.00798   0.53418   0.91033  -0.09495
C          C       0.09069   0.47503   0.89065  -0.07941
C          C       0.21202   0.50162   0.86233  -0.08616
C          C       0.25043   0.58946   0.85366  -0.08148
C          C       0.25355   0.32312   0.98131   0.14016
C          C       0.19074   0.25343   0.00704  -0.17972
C          C       0.27846   0.19746   0.02542  -0.05853
C          C       0.42649   0.21073   0.01480  -0.05023
C          C       0.48675   0.27783   0.98616  -0.21545
C          C       0.40117   0.33559   0.96914   0.17768
C          C       0.22044   0.13129   0.06090   0.64533
C          C       0.59895   0.41414   0.92785  -0.18896
C          C       0.70157   0.72260   0.79065   0.60431
C          C       0.75017   0.63998   0.77241  -0.07126
C          C       0.66869   0.55823   0.78325  -0.17993
C          C       0.71139   0.47992   0.76662   0.13786
C          C       0.83504   0.47892   0.73776   0.18030
C          C       0.91483   0.56081   0.72635  -0.21177
C          C       0.87313   0.64023   0.74384  -0.07491
C          C       0.98862   0.39409   0.69239  -0.18271
C          C       0.43544   0.24755   0.76798  -0.08438
C          C       0.31469   0.23376   0.79781  -0.10591
C          C       0.29515   0.16548   0.82976  -0.07134
C          C       0.39611   0.11222   0.83176  -0.03516
C          C       0.51689   0.12754   0.80153  -0.07498
C          C       0.53767   0.19510   0.76926  -0.08830
C          C       0.37370   0.03632   0.86403   0.65186
C          C       0.82158   0.12393   0.27938   0.64705
C          C       0.90763   0.11923   0.34232  -0.06557
C          C       0.07041   0.14275   0.36084  -0.07004
C          C       0.14924   0.14364   0.42193  -0.21662
C          C       0.06643   0.12039   0.46623   0.18624
C          C       0.90234   0.09457   0.44628   0.14627
C          C       0.82467   0.09423   0.38595  -0.18912
C          C       0.29800   0.14814   0.54835  -0.19037
C          C       0.77749   0.10669   0.60143  -0.07478
C          C       0.92507   0.12020   0.64089  -0.09049
C          C       0.93565   0.08516   0.69389  -0.06746
C          C       0.80034   0.03823   0.70754  -0.02628
C          C       0.65380   0.02499   0.66723  -0.08728
C          C       0.64124   0.05861   0.61345  -0.09182
C          C       0.80970  -0.00071   0.76410   0.65409
C          C       0.79541   0.25683   0.13775   0.66220
C          C       0.83258   0.35055   0.12718  -0.03224
C          C       0.95311   0.37856   0.09901  -0.07414
C          C       0.99202   0.46583   0.08967  -0.09479
C          C       0.90932   0.52498   0.10935  -0.07939
C          C       0.78799   0.49838   0.13767  -0.08603
C          C       0.74958   0.41055   0.14634  -0.08160
C          C       0.74646   0.67689   0.01869   0.14037
C          C       0.80927   0.74657   0.99296  -0.17979
C          C       0.72155   0.80255   0.97458  -0.05852
C          C       0.57352   0.78927   0.98521  -0.05030
C          C       0.51326   0.72217   0.01385  -0.21535
C          C       0.59883   0.66441   0.03086   0.17759
C          C       0.77957   0.86871   0.93910   0.64535
C          C       0.40106   0.58586   0.07215  -0.18930
C          C       0.29843   0.27740   0.20935   0.60436
C          C       0.24984   0.36003   0.22759  -0.07135
C          C       0.33131   0.44177   0.21676  -0.17979
C          C       0.28862   0.52008   0.23338   0.13785
C          C       0.16497   0.52109   0.26224   0.18024
C          C       0.08518   0.43920   0.27365  -0.21187
C          C       0.12688   0.35977   0.25616  -0.07475
C          C       0.01139   0.60592   0.30761  -0.18256
C          C       0.56457   0.75246   0.23202  -0.08435
C          C       0.68531   0.76624   0.20220  -0.10580
C          C       0.70486   0.83452   0.17024  -0.07115
C          C       0.60390   0.88779   0.16824  -0.03543
C          C       0.48312   0.87246   0.19847  -0.07491
C          C       0.46234   0.80490   0.23075  -0.08834
C          C       0.62631   0.96369   0.13597   0.65204
S          S       0.23298   0.84974   0.46634   1.09722
S          S       0.03895   0.36421   0.90303   1.09888
S          S       0.46449   0.33682   0.73019   1.09655
S          S       0.76703   0.15026   0.53366   1.09739
S          S       0.96106   0.63579   0.09698   1.09868
S          S       0.53552   0.66318   0.26982   1.09655
O          O       0.10352   0.86158   0.76216  -0.70415
O          O       0.32303   0.88464   0.72947  -0.66853
O          O       0.86962   0.87900   0.47302  -0.13829
O          O       0.18362   0.93191   0.51143  -0.32038
O          O       0.11194   0.76255   0.45190  -0.50006
O          O       0.39310   0.85924   0.49698  -0.51855
O          O       0.05750   0.99533   0.20246  -0.66574
O          O       0.31877   0.03761   0.22519  -0.70542
O          O       0.12604   0.79447   0.88158  -0.68138
O          O       0.31067   0.76587   0.83459  -0.68794
O          O       0.89082   0.34532   0.91864  -0.50023
O          O       0.06665   0.29750   0.85357  -0.49906
O          O       0.17608   0.38763   0.97158  -0.32811
O          O       0.46668   0.98952   0.86424  -0.64746
O          O       0.25877   0.02163   0.88922  -0.69031
O          O       0.07640   0.10918   0.06057  -0.67658
O          O       0.31779   0.10089   0.09245  -0.69918
O          O       0.35076   0.38512   0.73694  -0.51430
O          O       0.63571   0.40016   0.78143  -0.31835
O          O       0.46808   0.76554   0.69137  -0.80529
O          O       0.57167   0.71459   0.80374  -0.62002
O          O       0.44898   0.40268   0.94102  -0.14442
O          O       0.78997   0.80181   0.79095  -0.75528
O          O       0.86700   0.39856   0.72421  -0.13909
O          O       0.48994   0.30668   0.66741  -0.50924
O          O       0.89649   0.13843   0.23784  -0.70401
O          O       0.67697   0.11536   0.27054  -0.66887
O          O       0.13039   0.12101   0.52699  -0.13840
O          O       0.81639   0.06809   0.48857  -0.32055
O          O       0.88807   0.23745   0.54810  -0.49978
O          O       0.60691   0.14077   0.50302  -0.51894
O          O       0.94251   0.00468   0.79754  -0.66555
O          O       0.68124   0.96239   0.77481  -0.70560
O          O       0.87397   0.20553   0.11843  -0.68144
O          O       0.68934   0.23413   0.16541  -0.68797
O          O       0.10919   0.65468   0.08136  -0.49995
O          O       0.93336   0.70251   0.14643  -0.49887
O          O       0.82393   0.61238   0.02842  -0.32831
O          O       0.53333   0.01048   0.13576  -0.64768
O          O       0.74124   0.97837   0.11078  -0.69029
O          O       0.92360   0.89082   0.93943  -0.67629
O          O       0.68222   0.89912   0.90755  -0.69928
O          O       0.64925   0.61488   0.26307  -0.51422
O          O       0.36430   0.59984   0.21857  -0.31843
O          O       0.53193   0.23446   0.30863  -0.80527
O          O       0.42834   0.28541   0.19627  -0.61985
O          O       0.55103   0.59732   0.05898  -0.14437
O          O       0.21004   0.19819   0.20905  -0.75542
O          O       0.13301   0.60144   0.27579  -0.13894
O          O       0.51007   0.69332   0.33259  -0.50918

