data_crystal

_audit_creation_method 'AiiDA-DDEC plugin'

_cell_length_a        14.52451
_cell_length_b        14.48042
_cell_length_c        24.02895

_cell_angle_alpha     83.53682
_cell_angle_beta     83.47702
_cell_angle_gamma     61.83911

_symmetry_space_group_name_Hall 'P 1'
_symmetry_space_group_name_H-M  'P 1'

loop_
_symmetry_equiv_pos_as_xyz
 'x,y,z'

loop_
_atom_site_label
_atom_site_type_symbol
_atom_site_fract_x
_atom_site_fract_y
_atom_site_fract_z
_atom_site_charge
Gd         Gd      0.07476   0.58614   0.00173   2.00240
Gd         Gd      0.41305   0.92571   0.49775   2.00113
Gd         Gd      0.92524   0.41386   0.99828   2.00238
Gd         Gd      0.58696   0.07429   0.50226   2.00097
H          H       0.95014   0.65894   0.86365   0.12936
H          H       0.70400   0.96560   0.90185   0.14901
H          H       0.73031   0.89554   0.58873   0.12348
H          H       0.51922   0.79045   0.68103   0.15148
H          H       0.16897   0.79082   0.09873   0.15816
H          H       0.25018   0.48635   0.18394   0.14821
H          H       0.33876   0.05029   0.63333   0.12738
H          H       0.03598   0.30345   0.59543   0.15121
H          H       0.10264   0.26800   0.90963   0.12592
H          H       0.20762   0.48043   0.81864   0.15244
H          H       0.21443   0.82466   0.40221   0.15867
H          H       0.51284   0.75467   0.31346   0.14819
H          H       0.04985   0.34106   0.13636   0.12921
H          H       0.29598   0.03440   0.09816   0.14901
H          H       0.26970   0.10446   0.41127   0.12338
H          H       0.48079   0.20954   0.31897   0.15172
H          H       0.83104   0.20918   0.90127   0.15813
H          H       0.74983   0.51365   0.81606   0.14834
H          H       0.66124   0.94971   0.36667   0.12723
H          H       0.96402   0.69655   0.40457   0.15139
H          H       0.89737   0.73200   0.09037   0.12605
H          H       0.79237   0.51957   0.18136   0.15229
H          H       0.78558   0.17534   0.59779   0.15882
H          H       0.48716   0.24533   0.68654   0.14795
C          C       0.86830   0.79414   0.94824   0.62104
C          C       0.82946   0.80894   0.89082  -0.00936
C          C       0.87976   0.73014   0.85324  -0.09942
C          C       0.83994   0.74119   0.80172   0.03531
C          C       0.75047   0.83181   0.78387   0.02738
C          C       0.70681   0.91320   0.82101   0.02544
C          C       0.74261   0.90160   0.87412  -0.08695
C          C       0.70440   0.83801   0.73009   0.05093
C          C       0.73801   0.87100   0.67766   0.03847
C          C       0.69684   0.87428   0.62780  -0.09605
C          C       0.61740   0.84534   0.62842  -0.02663
C          C       0.58126   0.81272   0.67925  -0.06283
C          C       0.62315   0.81105   0.72874   0.03667
C          C       0.16306   0.61158   0.08846   0.57602
C          C       0.20529   0.63525   0.13537  -0.00655
C          C       0.20116   0.73387   0.13383  -0.07839
C          C       0.23389   0.76118   0.17845   0.02857
C          C       0.27696   0.69123   0.22536   0.04193
C          C       0.28301   0.59128   0.22426   0.02124
C          C       0.24578   0.56376   0.18121  -0.07553
C          C       0.56373   0.85943   0.57736   0.62943
C          C       0.20802   0.13749   0.54800   0.61850
C          C       0.19104   0.17456   0.60615  -0.00472
C          C       0.26854   0.12131   0.64407  -0.10248
C          C       0.25805   0.15961   0.69598   0.03851
C          C       0.16835   0.24929   0.71436   0.02177
C          C       0.08743   0.29525   0.67718   0.02800
C          C       0.09932   0.26212   0.62324  -0.09136
C          C       0.16288   0.29395   0.76854   0.04861
C          C       0.13015   0.25942   0.82069   0.04067
C          C       0.12481   0.30131   0.87080  -0.09884
C          C       0.15300   0.38140   0.87068  -0.02653
C          C       0.18604   0.41785   0.82012  -0.06544
C          C       0.18880   0.37584   0.77044   0.03794
C          C       0.39037   0.83616   0.41082   0.57516
C          C       0.36667   0.79460   0.36352  -0.00632
C          C       0.26956   0.79563   0.36605  -0.08087
C          C       0.24166   0.76387   0.32125   0.02750
C          C       0.31004   0.72378   0.27336   0.04327
C          C       0.40922   0.71919   0.27380   0.02408
C          C       0.43663   0.75679   0.31679  -0.07938
C          C       0.13904   0.43542   0.92174   0.63042
C          C       0.13169   0.20587   0.05176   0.62061
C          C       0.17053   0.19106   0.10919  -0.00910
C          C       0.12023   0.26987   0.14677  -0.09934
C          C       0.16006   0.25881   0.19829   0.03512
C          C       0.24953   0.16819   0.21613   0.02754
C          C       0.29318   0.08680   0.17899   0.02535
C          C       0.25738   0.09840   0.12589  -0.08701
C          C       0.29560   0.16200   0.26991   0.05084
C          C       0.26199   0.12901   0.32234   0.03838
C          C       0.30317   0.12573   0.37220  -0.09616
C          C       0.38261   0.15466   0.37158  -0.02645
C          C       0.41874   0.18728   0.32075  -0.06292
C          C       0.37685   0.18895   0.27126   0.03681
C          C       0.83695   0.38842   0.91154   0.57566
C          C       0.79472   0.36475   0.86463  -0.00654
C          C       0.79885   0.26613   0.86617  -0.07836
C          C       0.76612   0.23882   0.82155   0.02850
C          C       0.72304   0.30877   0.77464   0.04193
C          C       0.71699   0.40873   0.77574   0.02112
C          C       0.75422   0.43625   0.81879  -0.07543
C          C       0.43628   0.14057   0.42264   0.62926
C          C       0.79199   0.86251   0.45200   0.61843
C          C       0.80896   0.82544   0.39385  -0.00460
C          C       0.73146   0.87869   0.35593  -0.10253
C          C       0.74196   0.84038   0.30402   0.03870
C          C       0.83166   0.75070   0.28564   0.02167
C          C       0.91258   0.70474   0.32282   0.02790
C          C       0.90069   0.73788   0.37677  -0.09136
C          C       0.83714   0.70605   0.23146   0.04881
C          C       0.86987   0.74057   0.17931   0.04033
C          C       0.87520   0.69869   0.12920  -0.09868
C          C       0.84700   0.61861   0.12932  -0.02660
C          C       0.81396   0.58215   0.17988  -0.06560
C          C       0.81120   0.62416   0.22956   0.03807
C          C       0.60963   0.16385   0.58918   0.57525
C          C       0.63333   0.20541   0.63648  -0.00622
C          C       0.73044   0.20437   0.63395  -0.08087
C          C       0.75835   0.23613   0.67875   0.02748
C          C       0.68997   0.27622   0.72664   0.04342
C          C       0.59079   0.28081   0.72620   0.02405
C          C       0.56338   0.24321   0.68321  -0.07953
C          C       0.86095   0.56459   0.07826   0.63061
N          N       0.89817   0.65381   0.76504   0.53203
N          N       0.62166   0.01708   0.80385   0.52548
N          N       0.81751   0.90763   0.67395   0.52840
N          N       0.57686   0.77930   0.78074   0.52660
N          N       0.33037   0.50993   0.26982   0.53269
N          N       0.21771   0.86979   0.17572   0.53002
N          N       0.34522   0.09987   0.73240   0.53021
N          N       0.98344   0.37977   0.69504   0.52216
N          N       0.09725   0.17697   0.82376   0.52986
N          N       0.22149   0.42223   0.71896   0.52660
N          N       0.48972   0.67291   0.22771   0.52993
N          N       0.13456   0.77645   0.32516   0.52946
N          N       0.10184   0.34621   0.23496   0.53215
N          N       0.37833   0.98292   0.19615   0.52567
N          N       0.18249   0.09238   0.32605   0.52862
N          N       0.42314   0.22070   0.21926   0.52638
N          N       0.66964   0.49007   0.73018   0.53259
N          N       0.78230   0.13021   0.82428   0.53009
N          N       0.65480   0.90013   0.26759   0.53009
N          N       0.01657   0.62023   0.30496   0.52220
N          N       0.90279   0.82301   0.17625   0.52942
N          N       0.77851   0.57777   0.28104   0.52668
N          N       0.51028   0.32709   0.77229   0.52995
N          N       0.86545   0.22356   0.67484   0.52922
O          O       0.96493   0.71608   0.95278  -0.75711
O          O       0.81374   0.84855   0.98656  -0.47476
O          O       0.98733   0.58764   0.77765  -0.32916
O          O       0.59762   0.03231   0.75433  -0.32999
O          O       0.58171   0.08401   0.83899  -0.30657
O          O       0.62587   0.75385   0.82383  -0.32973
O          O       0.49252   0.77928   0.77778  -0.29738
O          O       0.87997   0.87535   0.71122  -0.30113
O          O       0.81577   0.96956   0.63333  -0.32149
O          O       0.14982   0.66959   0.04213  -0.62780
O          O       0.13836   0.53664   0.09415  -0.63153
O          O       0.19496   0.92209   0.13034  -0.29760
O          O       0.22660   0.90305   0.21932  -0.32912
O          O       0.33299   0.42396   0.26688  -0.31891
O          O       0.36569   0.53211   0.30821  -0.31861
O          O       0.50723   0.81540   0.57334  -0.57904
O          O       0.56804   0.92489   0.53626  -0.76719
O          O       0.85556   0.65150   0.72364  -0.30951
O          O       0.28089   0.03802   0.54450  -0.75527
O          O       0.16058   0.19533   0.50842  -0.47226
O          O       0.40877   0.00948   0.71998  -0.32458
O          O       0.96434   0.39457   0.74604  -0.33449
O          O       0.92039   0.42760   0.65864  -0.30251
O          O       0.25067   0.37145   0.67633  -0.32735
O          O       0.21855   0.50823   0.72200  -0.29795
O          O       0.13703   0.11054   0.78829  -0.30114
O          O       0.03140   0.18010   0.86226  -0.31903
O          O       0.33416   0.84585   0.45756  -0.62683
O          O       0.46304   0.86394   0.40532  -0.63021
O          O       0.08760   0.78716   0.37223  -0.30143
O          O       0.09720   0.77678   0.28095  -0.32727
O          O       0.57513   0.67116   0.23035  -0.31885
O          O       0.46776   0.63728   0.18934  -0.31872
O          O       0.18273   0.49252   0.92506  -0.57714
O          O       0.07473   0.43069   0.96339  -0.76957
O          O       0.34984   0.14266   0.77320  -0.30840
O          O       0.03507   0.28392   0.04722  -0.75720
O          O       0.18626   0.15147   0.01344  -0.47447
O          O       0.01268   0.41238   0.22234  -0.32954
O          O       0.40238   0.96769   0.24567  -0.32992
O          O       0.41829   0.91599   0.16101  -0.30667
O          O       0.37413   0.24615   0.17617  -0.32981
O          O       0.50748   0.22073   0.22221  -0.29692
O          O       0.12004   0.12465   0.28878  -0.30149
O          O       0.18422   0.03046   0.36667  -0.32162
O          O       0.85019   0.33041   0.95787  -0.62783
O          O       0.86165   0.46336   0.90585  -0.63114
O          O       0.80504   0.07791   0.86966  -0.29761
O          O       0.77340   0.09695   0.78068  -0.32920
O          O       0.66701   0.57604   0.73312  -0.31868
O          O       0.63431   0.46789   0.69179  -0.31875
O          O       0.49279   0.18459   0.42666  -0.57861
O          O       0.43197   0.07511   0.46375  -0.76730
O          O       0.14446   0.34853   0.27635  -0.30922
O          O       0.71911   0.96197   0.45550  -0.75519
O          O       0.83942   0.80467   0.49158  -0.47213
O          O       0.59124   0.99051   0.28002  -0.32447
O          O       0.03567   0.60543   0.25396  -0.33467
O          O       0.07962   0.57240   0.34136  -0.30225
O          O       0.74934   0.62854   0.32367  -0.32745
O          O       0.78146   0.49176   0.27800  -0.29814
O          O       0.86302   0.88945   0.21172  -0.30083
O          O       0.96865   0.81988   0.13775  -0.31857
O          O       0.66585   0.15415   0.54245  -0.62659
O          O       0.53695   0.13610   0.59468  -0.63060
O          O       0.91241   0.21285   0.62777  -0.30123
O          O       0.90280   0.22321   0.71905  -0.32698
O          O       0.42488   0.32884   0.76965  -0.31923
O          O       0.53225   0.36271   0.81066  -0.31850
O          O       0.81725   0.50750   0.07494  -0.57751
O          O       0.92527   0.56931   0.03661  -0.76952
O          O       0.65020   0.85734   0.22679  -0.30870

