data_crystal

_audit_creation_method 'AiiDA-DDEC plugin'

_cell_length_a        11.73568
_cell_length_b        17.16801
_cell_length_c        19.12649

_cell_angle_alpha     112.96821
_cell_angle_beta     89.90778
_cell_angle_gamma     90.20616

_symmetry_space_group_name_Hall 'P 1'
_symmetry_space_group_name_H-M  'P 1'

loop_
_symmetry_equiv_pos_as_xyz
 'x,y,z'

loop_
_atom_site_label
_atom_site_type_symbol
_atom_site_fract_x
_atom_site_fract_y
_atom_site_fract_z
_atom_site_charge
Mn         Mn      0.41446   0.79314   0.52546   1.06429
Mn         Mn      0.19513   0.65743   0.37645   1.09630
Mn         Mn      0.52321   0.75924   0.67551   1.09253
Mn         Mn      0.91574   0.20504   0.97402   1.06166
Mn         Mn      0.70036   0.34320   0.12404   1.09336
Mn         Mn      0.02564   0.24180   0.82543   1.09415
Mn         Mn      0.57979   0.20814   0.46639   1.10545
Mn         Mn      0.81406   0.34342   0.62866   1.10267
Mn         Mn      0.46589   0.24175   0.31413   1.07678
Mn         Mn      0.08290   0.79303   0.03476   1.10225
Mn         Mn      0.31064   0.65718   0.87197   1.10248
Mn         Mn      0.96368   0.75834   0.18583   1.08017
H          H       0.31686   0.67282   0.62148   0.12233
H          H       0.45384   0.44852   0.64103   0.12943
H          H       0.31868   0.43792   0.42801   0.13476
H          H       0.19781   0.00870   0.71994   0.13452
H          H       0.09611   0.98577   0.92786   0.14037
H          H       0.28642   0.78640   0.75963   0.11218
H          H       0.81897   0.32748   0.87780   0.12233
H          H       0.95854   0.55198   0.85855   0.12813
H          H       0.82057   0.56246   0.07108   0.12990
H          H       0.69761   0.99143   0.77975   0.13495
H          H       0.59666   0.01491   0.57216   0.14112
H          H       0.78762   0.21434   0.74082   0.11240
H          H       0.67315   0.31618   0.36464   0.12274
H          H       0.53739   0.54645   0.35779   0.13084
H          H       0.66849   0.54338   0.56678   0.13107
H          H       0.79069   0.98344   0.27504   0.13480
H          H       0.91165   0.01302   0.07351   0.14290
H          H       0.70939   0.20790   0.23631   0.11417
H          H       0.17043   0.68445   0.13696   0.12087
H          H       0.03489   0.45335   0.14361   0.13039
H          H       0.17038   0.45655   0.93543   0.13207
H          H       0.29278   0.01634   0.22577   0.13449
H          H       0.40912   0.98843   0.42879   0.14271
H          H       0.21228   0.79078   0.26359   0.11372
C          C       0.26535   0.60108   0.47136   0.56536
C          C       0.31143   0.55947   0.52022  -0.02929
C          C       0.33705   0.60589   0.59672  -0.12757
C          C       0.38853   0.56628   0.64019  -0.05438
C          C       0.41790   0.62039   0.72087   0.62097
C          C       0.41292   0.47936   0.60767  -0.09263
C          C       0.38831   0.43268   0.53048  -0.04522
C          C       0.42607   0.34403   0.48771   0.57280
C          C       0.33659   0.47330   0.48775  -0.09128
C          C       0.30245   0.85669   0.65553   0.58255
C          C       0.24711   0.89308   0.73098  -0.04903
C          C       0.19623   0.97282   0.75584  -0.07652
C          C       0.14439   0.00684   0.82739  -0.04922
C          C       0.09362   0.09329   0.85348   0.60326
C          C       0.13908   0.95970   0.87314  -0.07578
C          C       0.18978   0.87958   0.84809  -0.05097
C          C       0.18683   0.82532   0.89341   0.61708
C          C       0.24549   0.84768   0.77775  -0.09196
C          C       0.76643   0.39954   0.02811   0.56282
C          C       0.81319   0.44087   0.97892  -0.02827
C          C       0.83949   0.39446   0.90251  -0.12746
C          C       0.89219   0.43415   0.85922  -0.05951
C          C       0.92297   0.37991   0.77877   0.62027
C          C       0.91683   0.52118   0.89183  -0.09112
C          C       0.89110   0.56792   0.96888  -0.04553
C          C       0.92711   0.65706   0.01212   0.57093
C          C       0.83869   0.52706   0.01139  -0.08776
C          C       0.80249   0.14377   0.84461   0.58288
C          C       0.74751   0.10740   0.76909  -0.04783
C          C       0.69639   0.02750   0.74402  -0.07863
C          C       0.64463   0.99344   0.67243  -0.04675
C          C       0.59353   0.90676   0.64652   0.60213
C          C       0.63956   0.04086   0.62692  -0.07787
C          C       0.69067   0.12111   0.65216  -0.05059
C          C       0.68862   0.17582   0.60725   0.61874
C          C       0.74635   0.15298   0.72251  -0.09229
C          C       0.71927   0.37651   0.51488   0.56925
C          C       0.67444   0.42344   0.47054  -0.03551
C          C       0.65092   0.38231   0.39286  -0.13950
C          C       0.60198   0.42541   0.35164  -0.05133
C          C       0.57539   0.37500   0.26945   0.61958
C          C       0.57707   0.51177   0.38821  -0.09048
C          C       0.60052   0.55354   0.46619  -0.04617
C          C       0.56374   0.64289   0.50959   0.60359
C          C       0.65101   0.51009   0.50663  -0.09176
C          C       0.68037   0.13918   0.33645   0.56979
C          C       0.74355   0.10001   0.26455  -0.04729
C          C       0.79571   0.02083   0.24055  -0.08413
C          C       0.85421   0.98874   0.17080  -0.04630
C          C       0.90775   0.90377   0.14689   0.58189
C          C       0.86387   0.03726   0.12645  -0.08020
C          C       0.81177   0.11692   0.15115  -0.05297
C          C       0.82072   0.17350   0.10878   0.61907
C          C       0.75044   0.14682   0.21893  -0.09883
C          C       0.21936   0.62364   0.98687   0.56933
C          C       0.17449   0.57673   0.03139  -0.03779
C          C       0.14911   0.61802   0.10882  -0.13784
C          C       0.09927   0.57471   0.14979  -0.05212
C          C       0.07059   0.62520   0.23157   0.61887
C          C       0.07526   0.48807   0.11330  -0.08916
C          C       0.10017   0.44628   0.03556  -0.04516
C          C       0.06366   0.35681   0.99186   0.60612
C          C       0.15166   0.48988   0.99539  -0.09224
C          C       0.18332   0.85984   0.16410   0.57193
C          C       0.24643   0.89921   0.23593  -0.04812
C          C       0.29745   0.97907   0.26036  -0.08360
C          C       0.35383   0.01215   0.33089  -0.04767
C          C       0.40553   0.09799   0.35544   0.58056
C          C       0.36310   0.96356   0.37518  -0.07973
C          C       0.31253   0.88308   0.34985  -0.05202
C          C       0.32104   0.82682   0.39250   0.61859
C          C       0.25268   0.85236   0.28151  -0.09885
O          O       0.25089   0.68189   0.49598  -0.58702
O          O       0.24120   0.55496   0.40172  -0.54480
O          O       0.46812   0.69142   0.73651  -0.56886
O          O       0.38859   0.59341   0.77218  -0.57149
O          O       0.48146   0.30439   0.52187  -0.51911
O          O       0.40580   0.31308   0.41634  -0.59152
O          O       0.37147   0.79251   0.64215  -0.63513
O          O       0.28526   0.88384   0.60435  -0.49597
O          O       0.09724   0.12931   0.80555  -0.57760
O          O       0.05106   0.12502   0.91969  -0.55931
O          O       0.12014   0.84269   0.94905  -0.51032
O          O       0.25617   0.76158   0.86879  -0.62042
O          O       0.74876   0.31915   0.00355  -0.58314
O          O       0.74545   0.44573   0.09824  -0.54558
O          O       0.97147   0.30861   0.76379  -0.56750
O          O       0.89672   0.40662   0.72682  -0.57290
O          O       0.98385   0.69738   0.97887  -0.52034
O          O       0.90357   0.68782   0.08317  -0.59095
O          O       0.87346   0.20724   0.85804  -0.63492
O          O       0.78320   0.11692   0.89586  -0.49653
O          O       0.59920   0.87044   0.69421  -0.57884
O          O       0.54877   0.87525   0.58102  -0.55899
O          O       0.62152   0.15965   0.55209  -0.51309
O          O       0.75950   0.23893   0.63191  -0.61945
O          O       0.70387   0.29656   0.49610  -0.57232
O          O       0.77686   0.41887   0.57596  -0.55783
O          O       0.52050   0.30493   0.25074  -0.57065
O          O       0.61100   0.40282   0.22037  -0.55705
O          O       0.50280   0.67912   0.47605  -0.56396
O          O       0.59356   0.67611   0.57962  -0.58999
O          O       0.61668   0.20318   0.34346  -0.61540
O          O       0.68699   0.11755   0.39285  -0.46670
O          O       0.89645   0.86704   0.19368  -0.57082
O          O       0.96050   0.87458   0.08299  -0.52583
O          O       0.88603   0.15247   0.05181  -0.52558
O          O       0.76116   0.24200   0.13498  -0.61050
O          O       0.20606   0.70387   0.00672  -0.57351
O          O       0.27421   0.58118   0.92466  -0.55733
O          O       0.01721   0.69543   0.24945  -0.57028
O          O       0.10319   0.59751   0.28131  -0.55899
O          O       0.00019   0.32060   0.02441  -0.56532
O          O       0.09602   0.32349   0.92236  -0.59085
O          O       0.11532   0.79816   0.15824  -0.61396
O          O       0.19386   0.87966   0.10676  -0.46548
O          O       0.39417   0.13492   0.30887  -0.57084
O          O       0.45705   0.12805   0.41985  -0.52467
O          O       0.38864   0.84722   0.44825  -0.52254
O          O       0.25884   0.75930   0.36793  -0.61318

