data_crystal

_audit_creation_method 'AiiDA-DDEC plugin'

_cell_length_a         7.45175
_cell_length_b        15.48888
_cell_length_c        26.85668

_cell_angle_alpha     89.99955
_cell_angle_beta     90.00000
_cell_angle_gamma     90.20213

_symmetry_space_group_name_Hall 'P 1'
_symmetry_space_group_name_H-M  'P 1'

loop_
_symmetry_equiv_pos_as_xyz
 'x,y,z'

loop_
_atom_site_label
_atom_site_type_symbol
_atom_site_fract_x
_atom_site_fract_y
_atom_site_fract_z
_atom_site_charge
Ni         Ni      0.47995   0.65311   0.69118   0.75013
Ni         Ni      0.02004   0.34689   0.19119   0.75030
Ni         Ni      0.52135   0.15233   0.80948   0.75040
Ni         Ni      0.97865   0.84766   0.30948   0.75057
H          H       0.44485   0.75901   0.78234   0.11035
H          H       0.24794   0.77473   0.63842   0.11295
H          H       0.24100   0.87607   0.81187   0.13554
H          H       0.02838   0.88978   0.66217   0.12720
H          H       0.76331   0.89725   0.71172   0.13750
H          H       0.15112   0.02444   0.80727   0.13786
H          H       0.53625   0.00529   0.74129   0.09947
H          H       0.90901   0.12552   0.83242   0.10314
H          H       0.74541   0.46791   0.57397   0.12725
H          H       0.76336   0.40291   0.48924   0.13279
H          H       0.26496   0.60161   0.53107   0.14237
H          H       0.42105   0.30053   0.31543   0.12440
H          H       0.81839   0.49753   0.41118   0.11667
H          H       0.91649   0.43966   0.32981   0.11866
H          H       0.05515   0.24098   0.28234   0.11030
H          H       0.25206   0.22526   0.13842   0.11297
H          H       0.25900   0.12392   0.31187   0.13548
H          H       0.47162   0.11021   0.16217   0.12738
H          H       0.73669   0.10274   0.21172   0.13738
H          H       0.34888   0.97556   0.30727   0.13797
H          H       0.96375   0.99470   0.24129   0.09935
H          H       0.59099   0.87447   0.33242   0.10317
H          H       0.75459   0.53209   0.07397   0.12723
H          H       0.73663   0.59708   0.98924   0.13263
H          H       0.23504   0.39838   0.03107   0.14236
H          H       0.07894   0.69946   0.81544   0.12418
H          H       0.68160   0.50246   0.91118   0.11685
H          H       0.58350   0.56034   0.82981   0.11874
H          H       0.55397   0.25845   0.71756   0.11096
H          H       0.75122   0.27442   0.86150   0.11307
H          H       0.75876   0.37589   0.68809   0.13484
H          H       0.97205   0.38965   0.83774   0.12771
H          H       0.23690   0.39734   0.78820   0.13875
H          H       0.84981   0.52415   0.69280   0.13886
H          H       0.46448   0.50613   0.75882   0.09907
H          H       0.09247   0.62575   0.66777   0.10461
H          H       0.25514   0.96744   0.92624   0.12789
H          H       0.23542   0.90226   0.01098   0.13177
H          H       0.73611   0.10160   0.96937   0.14191
H          H       0.57626   0.80032   0.18492   0.12494
H          H       0.18131   0.99733   0.08915   0.11743
H          H       0.08227   0.93956   0.17062   0.11890
H          H       0.94603   0.74155   0.21756   0.11084
H          H       0.74877   0.72557   0.36150   0.11293
H          H       0.74124   0.62411   0.18809   0.13496
H          H       0.52795   0.61035   0.33774   0.12783
H          H       0.26310   0.60266   0.28820   0.13846
H          H       0.65018   0.47585   0.19279   0.13886
H          H       0.03552   0.49386   0.25882   0.09903
H          H       0.40753   0.37425   0.16777   0.10491
H          H       0.24485   0.03255   0.42624   0.12790
H          H       0.26458   0.09774   0.51098   0.13179
H          H       0.76389   0.89839   0.46937   0.14234
H          H       0.92374   0.19968   0.68492   0.12488
H          H       0.31869   0.00267   0.58915   0.11748
H          H       0.41773   0.06043   0.67062   0.11892
C          C       0.35315   0.79130   0.75702   0.09602
C          C       0.23981   0.79924   0.67634   0.08736
C          C       0.23839   0.85603   0.77303  -0.15916
C          C       0.11867   0.86277   0.68992  -0.14976
C          C       0.11380   0.89105   0.73954   0.12039
C          C       0.97744   0.95298   0.75638   0.10063
C          C       0.80147   0.94780   0.73781  -0.15441
C          C       0.01699   0.01694   0.79170  -0.16750
C          C       0.67441   0.00645   0.75433   0.08957
C          C       0.88292   0.07397   0.80591   0.09869
C          C       0.50230   0.58333   0.60750   0.54675
C          C       0.50699   0.54067   0.55782  -0.02006
C          C       0.64504   0.48305   0.54591  -0.06091
C          C       0.65506   0.44702   0.49849  -0.11895
C          C       0.52791   0.46634   0.46142   0.05151
C          C       0.38678   0.52182   0.47505   0.01898
C          C       0.37518   0.55858   0.52224  -0.13055
C          C       0.73636   0.33130   0.26748   0.55982
C          C       0.67473   0.36713   0.31687  -0.01903
C          C       0.50771   0.34385   0.33634  -0.13185
C          C       0.45480   0.37496   0.38279   0.01101
C          C       0.56393   0.43111   0.41104   0.03658
C          C       0.73062   0.45421   0.39041  -0.12921
C          C       0.78505   0.42273   0.34437  -0.06130
C          C       0.14685   0.20869   0.25702   0.09582
C          C       0.26019   0.20075   0.17634   0.08741
C          C       0.26161   0.14396   0.27303  -0.15893
C          C       0.38133   0.13723   0.18992  -0.14974
C          C       0.38620   0.10895   0.23954   0.12030
C          C       0.52256   0.04702   0.25638   0.10067
C          C       0.69853   0.05219   0.23781  -0.15454
C          C       0.48301   0.98306   0.29170  -0.16767
C          C       0.82559   0.99354   0.25433   0.08966
C          C       0.61708   0.92602   0.30591   0.09897
C          C      -0.00230   0.41667   0.10751   0.54673
C          C       0.99301   0.45932   0.05782  -0.02006
C          C       0.85496   0.51695   0.04591  -0.06085
C          C       0.84493   0.55297   0.99850  -0.11867
C          C       0.97209   0.53365   0.96142   0.05112
C          C       0.11321   0.47817   0.97505   0.01948
C          C       0.12482   0.44142   0.02224  -0.13033
C          C       0.76363   0.66870   0.76748   0.55961
C          C       0.82526   0.63287   0.81687  -0.01892
C          C       0.99228   0.65614   0.83634  -0.13204
C          C       0.04519   0.62503   0.88279   0.01080
C          C       0.93606   0.56888   0.91104   0.03654
C          C       0.76937   0.54578   0.89041  -0.12903
C          C       0.71494   0.57726   0.84437  -0.06113
C          C       0.64608   0.29074   0.74290   0.09541
C          C       0.75976   0.29890   0.82358   0.08528
C          C       0.76131   0.35567   0.72690  -0.15966
C          C       0.88147   0.36253   0.81000  -0.14661
C          C       0.88640   0.39075   0.76038   0.11812
C          C       0.02318   0.45289   0.74359   0.10170
C          C       0.19905   0.44794   0.76220  -0.15653
C          C       0.98389   0.51686   0.70837  -0.17007
C          C       0.32631   0.50697   0.74580   0.08958
C          C       0.11824   0.57425   0.69426   0.09981
C          C       0.50017   0.08346   0.89334   0.54555
C          C       0.49429   0.04018   0.94273  -0.01912
C          C       0.35552   0.98237   0.95439  -0.06294
C          C       0.34457   0.94626   0.00175  -0.11586
C          C       0.47156   0.96570   0.03892   0.05173
C          C       0.61372   0.02111   0.02541   0.01891
C          C       0.62620   0.05804   0.97829  -0.13132
C          C       0.26013   0.83125   0.23300   0.55556
C          C       0.32311   0.86703   0.18364  -0.01838
C          C       0.48979   0.84367   0.16412  -0.13272
C          C       0.54260   0.87474   0.11761   0.01195
C          C       0.43437   0.93084   0.08935   0.03566
C          C       0.26824   0.95407   0.11001  -0.12976
C          C       0.21349   0.92260   0.15608  -0.06180
C          C       0.85392   0.70926   0.24290   0.09550
C          C       0.74024   0.70109   0.32358   0.08525
C          C       0.73869   0.64432   0.22690  -0.15959
C          C       0.61852   0.63747   0.31000  -0.14660
C          C       0.61360   0.60925   0.26038   0.11827
C          C       0.47682   0.54711   0.24359   0.10161
C          C       0.30095   0.55205   0.26220  -0.15648
C          C       0.51610   0.48313   0.20837  -0.17011
C          C       0.17368   0.49303   0.24580   0.08960
C          C       0.38175   0.42575   0.19426   0.09984
C          C      -0.00018   0.91653   0.39334   0.54527
C          C       0.00571   0.95981   0.44273  -0.01896
C          C       0.14448   0.01762   0.45438  -0.06317
C          C       0.15543   0.05374   0.50175  -0.11624
C          C       0.02844   0.03430   0.53892   0.05179
C          C       0.88628   0.97889   0.52541   0.01898
C          C       0.87380   0.94195   0.47829  -0.13175
C          C       0.23987   0.16874   0.73301   0.55547
C          C       0.17689   0.13296   0.68364  -0.01851
C          C       0.01021   0.15633   0.66412  -0.13286
C          C       0.95740   0.12526   0.61761   0.01218
C          C       0.06563   0.06915   0.58935   0.03546
C          C       0.23176   0.04592   0.61002  -0.12959
C          C       0.28651   0.07740   0.65608  -0.06170
N          N       0.35277   0.76236   0.70955  -0.24491
N          N       0.71478   0.06917   0.78748  -0.21286
N          N       0.24339   0.54372   0.43951   0.52756
N          N       0.27849   0.34627   0.40148   0.52942
N          N       0.14723   0.23763   0.20955  -0.24498
N          N       0.78521   0.93083   0.28748  -0.21293
N          N       0.25661   0.45627   0.93951   0.52728
N          N       0.22150   0.65373   0.90148   0.52959
N          N       0.64660   0.26182   0.79038  -0.24513
N          N       0.28625   0.56973   0.71276  -0.21088
N          N       0.75702   0.04331   0.06088   0.53004
N          N       0.71760   0.84578   0.09841   0.52737
N          N       0.85340   0.73818   0.29038  -0.24537
N          N       0.21375   0.43026   0.21276  -0.21083
N          N       0.74298   0.95668   0.56088   0.52975
N          N       0.78240   0.15422   0.59841   0.52736
O          O       0.39149   0.64513   0.61536  -0.54709
O          O       0.60925   0.55843   0.64183  -0.54245
O          O       0.88974   0.36428   0.25383  -0.58781
O          O       0.64544   0.27670   0.24470  -0.55854
O          O       0.09192   0.55854   0.45682  -0.32798
O          O       0.28137   0.54585   0.39431  -0.34972
O          O       0.17169   0.31502   0.37086  -0.33785
O          O       0.24580   0.35490   0.44666  -0.33986
O          O       0.10851   0.35487   0.11536  -0.54694
O          O       0.89074   0.44156   0.14183  -0.54268
O          O       0.61026   0.63571   0.75382  -0.58733
O          O       0.85456   0.72330   0.74470  -0.55889
O          O       0.40808   0.44145   0.95682  -0.32781
O          O       0.21862   0.45414   0.89432  -0.34974
O          O       0.32831   0.68498   0.87086  -0.33828
O          O       0.25419   0.64509   0.94666  -0.33971
O          O       0.60875   0.14678   0.88632  -0.54620
O          O       0.39654   0.05719   0.85842  -0.54177
O          O       0.11032   0.86647   0.24729  -0.58574
O          O       0.34649   0.77463   0.25530  -0.55774
O          O       0.90901   0.05662   0.04339  -0.32952
O          O       0.71849   0.04768   0.10598  -0.34959
O          O       0.82754   0.81721   0.12895  -0.33741
O          O       0.74589   0.85182   0.05288  -0.33793
O          O       0.89125   0.85321   0.38632  -0.54569
O          O       0.10347   0.94280   0.35842  -0.54201
O          O       0.38968   0.13352   0.74729  -0.58551
O          O       0.15351   0.22537   0.75530  -0.55782
O          O       0.59098   0.94337   0.54339  -0.32940
O          O       0.78150   0.95231   0.60598  -0.34927
O          O       0.67246   0.18278   0.62895  -0.33741
O          O       0.75411   0.14817   0.55288  -0.33809

