data_crystal

_audit_creation_method 'AiiDA-DDEC plugin'

_cell_length_a        13.48545
_cell_length_b        14.26525
_cell_length_c        14.26605

_cell_angle_alpha     110.55603
_cell_angle_beta     108.40333
_cell_angle_gamma     108.38312

_symmetry_space_group_name_Hall 'P 1'
_symmetry_space_group_name_H-M  'P 1'

loop_
_symmetry_equiv_pos_as_xyz
 'x,y,z'

loop_
_atom_site_label
_atom_site_type_symbol
_atom_site_fract_x
_atom_site_fract_y
_atom_site_fract_z
_atom_site_charge
Cr         Cr      0.26745   0.45655   0.58719   1.39450
Cr         Cr      0.68003   0.41285   0.86927   1.39256
Cr         Cr      0.81017   0.13077   0.54289   1.39655
Ga         Ga      0.47928   0.62112   0.45371   1.45988
Ga         Ga      0.31927   0.58703   0.12953   1.29610
Ga         Ga      0.02464   0.54610   0.16714   1.45841
Ga         Ga      0.18942   0.87015   0.45748   1.29519
Ga         Ga      0.85851   0.83264   0.37874   1.45929
Ga         Ga      0.73094   0.54273   0.41302   1.29404
Ga         Ga      0.51996   0.37439   0.54544   1.45940
Ga         Ga      0.97552   0.45481   0.82876   1.45874
Ga         Ga      0.14567   0.17131   0.62563   1.45868
P          P       0.54045   0.60507   0.66139   1.47495
P          P       0.60281   0.66691   0.31179   1.52652
P          P       0.87908   0.33898   0.94354   1.47177
P          P       0.29022   0.68779   0.35465   1.52791
P          P       0.93477   0.05615   0.39461   1.47276
P          P       0.93583   0.64498   0.33341   1.52504
P          P       0.45672   0.39166   0.33900   1.46046
P          P       0.39988   0.33225   0.68894   1.54545
P          P       0.11906   0.66118   0.05233   1.46066
P          P       0.71070   0.31112   0.64325   1.54791
P          P       0.06613   0.94769   0.60848   1.45891
P          P       0.06704   0.35659   0.66667   1.54889
H          H       0.41834   0.65786   0.76377   0.30554
H          H       0.28862   0.60881   0.76882   0.28842
H          H       0.24250   0.54673   0.45917   0.26255
H          H       0.13760   0.24110   0.43243   0.29789
H          H       0.25691   0.29418   0.41666   0.29923
H          H       0.35379   0.72190   0.64582   0.09364
H          H       0.27746   0.75040   0.72530   0.09494
H          H       0.13530   0.64167   0.51185   0.11690
H          H       0.09938   0.55788   0.57628   0.09897
H          H       0.03488   0.42596   0.31843   0.09950
H          H       0.01649   0.36971   0.41006   0.10428
H          H       0.04520   0.23972   0.26472   0.10507
H          H       0.18056   0.35647   0.30429   0.09791
H          H       0.65439   0.23654   0.89414   0.30599
H          H       0.51943   0.23105   0.83994   0.28856
H          H       0.78314   0.54082   0.08752   0.26221
H          H       0.70612   0.56832   0.80918   0.29819
H          H       0.84097   0.58375   0.87842   0.30020
H          H       0.70774   0.35437   0.07617   0.09279
H          H       0.55182   0.27487   0.02500   0.09359
H          H       0.62319   0.48820   0.12969   0.11686
H          H       0.52279   0.42365   0.98137   0.09875
H          H       0.71626   0.68159   0.10755   0.09896
H          H       0.60663   0.59007   0.95941   0.10350
H          H       0.78108   0.73559   0.97572   0.10449
H          H       0.87677   0.69618   0.05303   0.09768
H          H       0.75958   0.10572   0.34165   0.30545
H          H       0.67868   0.15975   0.39016   0.28888
H          H       0.69547   0.91267   0.45284   0.26240
H          H       0.89622   0.19131   0.75841   0.29823
H          H       0.96240   0.12256   0.70515   0.29965
H          H       0.63133   0.92380   0.27772   0.09362
H          H       0.52612   0.97434   0.24882   0.09520
H          H       0.49286   0.86986   0.35757   0.11643
H          H       0.54067   0.01815   0.44143   0.09856
H          H       0.60844   0.89246   0.57347   0.09966
H          H       0.64669   0.04053   0.62994   0.10362
H          H       0.80541   0.02482   0.75951   0.10423
H          H       0.82383   0.94773   0.64267   0.09743
H          H       0.58179   0.34328   0.23766   0.30383
H          H       0.71075   0.39332   0.23104   0.28706
H          H       0.76146   0.45281   0.54385   0.25729
H          H       0.86055   0.75934   0.56520   0.29624
H          H       0.74128   0.70367   0.58032   0.29750
H          H       0.64768   0.27721   0.35223   0.09193
H          H       0.72573   0.25241   0.27377   0.09667
H          H       0.86451   0.35646   0.48618   0.11891
H          H       0.90300   0.44338   0.42527   0.09678
H          H       0.96758   0.57820   0.68385   0.09804
H          H       0.98431   0.63002   0.58882   0.10187
H          H       0.95614   0.76223   0.73194   0.10820
H          H       0.82186   0.64668   0.69620   0.09853
H          H       0.34485   0.76185   0.10492   0.30261
H          H       0.48078   0.76923   0.16141   0.28569
H          H       0.21812   0.45608   0.90840   0.25764
H          H       0.29458   0.43431   0.19332   0.29631
H          H       0.16079   0.42019   0.12195   0.29786
H          H       0.29610   0.64750   0.92428   0.09195
H          H       0.45272   0.72593   0.97801   0.09652
H          H       0.37924   0.51373   0.86967   0.11906
H          H       0.47839   0.57475   0.01766   0.09611
H          H       0.28418   0.31560   0.89394   0.09796
H          H       0.39566   0.41105   0.04108   0.10141
H          H       0.22395   0.26810   0.02960   0.10730
H          H       0.12543   0.30347   0.94942   0.09874
H          H       0.23922   0.89497   0.65694   0.30339
H          H       0.31879   0.83846   0.60802   0.28704
H          H       0.30921   0.09122   0.54805   0.25831
H          H       0.10200   0.80636   0.24095   0.29718
H          H       0.03841   0.87666   0.29710   0.29847
H          H       0.37161   0.07569   0.72380   0.09144
H          H       0.47432   0.02184   0.74842   0.09595
H          H       0.50936   0.13040   0.64466   0.11901
H          H       0.46061   0.98240   0.55768   0.09657
H          H       0.39035   0.10598   0.42253   0.09793
H          H       0.35459   0.95888   0.37068   0.10118
H          H       0.19463   0.97033   0.23885   0.10723
H          H       0.17561   0.04983   0.35420   0.09936
C          C       0.28523   0.68261   0.66603  -0.00787
C          C       0.16667   0.59934   0.55639  -0.08568
C          C       0.07825   0.40578   0.38221  -0.07175
C          C       0.12110   0.32230   0.33519   0.00503
C          C       0.61896   0.33415   0.01656  -0.00424
C          C       0.61002   0.44366   0.04283  -0.08591
C          C       0.69612   0.61789   0.02367  -0.07039
C          C       0.78638   0.66510   0.98769   0.00525
C          C       0.60179   0.98313   0.31679  -0.00734
C          C       0.56654   0.95682   0.40000  -0.08444
C          C       0.67207   0.97641   0.59366  -0.07057
C          C       0.79854   0.01279   0.67696   0.00653
C          C       0.71633   0.31851   0.33312  -0.01312
C          C       0.83491   0.40114   0.44397  -0.08548
C          C       0.92300   0.59501   0.61756  -0.07171
C          C       0.87975   0.67918   0.66320  -0.00337
C          C       0.38387   0.66654   0.98467  -0.01351
C          C       0.39155   0.55578   0.95648  -0.08519
C          C       0.30569   0.38217   0.97684  -0.07198
C          C       0.21642   0.33670   0.01510  -0.00250
C          C       0.39890   0.01530   0.68236  -0.01165
C          C       0.43487   0.04351   0.59983  -0.08602
C          C       0.32878   0.02302   0.40586  -0.07150
C          C       0.20127   0.98453   0.32178  -0.00349
N          N       0.32561   0.61893   0.71837  -0.60489
N          N       0.18496   0.50946   0.48441  -0.33346
N          N       0.19130   0.30915   0.42978  -0.60880
N          N       0.60696   0.28176   0.90053  -0.60571
N          N       0.70035   0.51566   0.02500  -0.33296
N          N       0.76204   0.57064   0.87988  -0.60938
N          N       0.70575   0.09932   0.38045  -0.60568
N          N       0.67487   0.97493   0.49001  -0.33379
N          N       0.88180   0.12066   0.69025  -0.61015
N          N       0.67464   0.38178   0.28165  -0.56819
N          N       0.81740   0.49003   0.51738  -0.31040
N          N       0.80827   0.69084   0.56839  -0.56104
N          N       0.39391   0.71812   0.09952  -0.56603
N          N       0.30059   0.48232   0.97190  -0.31118
N          N       0.23988   0.43161   0.12157  -0.56152
N          N       0.29394   0.90040   0.61888  -0.56776
N          N       0.32840   0.02791   0.51083  -0.31127
N          N       0.11828   0.87777   0.30978  -0.56283
O          O       0.40634   0.52006   0.56889  -0.89468
O          O       0.58602   0.67648   0.60529  -0.76697
O          O       0.60488   0.52779   0.66067  -0.77912
O          O       0.56568   0.67884   0.77992  -0.75548
O          O       0.58682   0.70772   0.42088  -0.79412
O          O       0.69298   0.78060   0.32591  -0.78591
O          O       0.48717   0.60688   0.20040  -0.80264
O          O       0.65989   0.58834   0.30830  -0.80977
O          O       0.83760   0.43160   0.95199  -0.89304
O          O       0.98134   0.39493   0.07083  -0.76589
O          O       0.94390   0.33965   0.86671  -0.77867
O          O       0.78545   0.22039   0.89844  -0.75451
O          O       0.16492   0.57898   0.28705  -0.79337
O          O       0.36672   0.67389   0.45423  -0.78611
O          O       0.28646   0.79932   0.40646  -0.80306
O          O       0.35009   0.69094   0.27899  -0.81189
O          O       0.88510   0.04831   0.47905  -0.89356
O          O       0.91012   0.92899   0.32370  -0.76681
O          O       0.07650   0.13328   0.47236  -0.78017
O          O       0.88592   0.10044   0.32043  -0.75428
O          O       0.87965   0.71346   0.29214  -0.79423
O          O       0.91171   0.54498   0.21949  -0.78492
O          O       0.87974   0.59358   0.39297  -0.80198
O          O       0.07157   0.72000   0.41228  -0.80931
O          O       0.58961   0.47873   0.43228  -0.87392
O          O       0.41053   0.31981   0.39447  -0.76520
O          O       0.39047   0.46754   0.33796  -0.77881
O          O       0.43445   0.31875   0.22140  -0.75951
O          O       0.41457   0.28739   0.57948  -0.78738
O          O       0.31056   0.22030   0.67832  -0.78376
O          O       0.51693   0.39355   0.79990  -0.82148
O          O       0.34360   0.41071   0.69112  -0.85072
O          O       0.15892   0.56810   0.04502  -0.87402
O          O       0.01672   0.60558   0.92506  -0.76593
O          O       0.05463   0.66212   0.12989  -0.78017
O          O       0.21412   0.77906   0.09717  -0.75938
O          O       0.83497   0.42065   0.70811  -0.78961
O          O       0.63189   0.32157   0.54178  -0.78519
O          O       0.71664   0.20014   0.59350  -0.82324
O          O       0.65217   0.30889   0.71949  -0.85047
O          O       0.11269   0.95412   0.52212  -0.87323
O          O       0.09124   0.07494   0.68012  -0.76543
O          O       0.92400   0.87040   0.53212  -0.77877
O          O       0.11616   0.90287   0.68153  -0.75921
O          O       0.12588   0.29174   0.71195  -0.78922
O          O       0.09000   0.45846   0.77833  -0.78434
O          O       0.12347   0.40618   0.60587  -0.82236
O          O       0.93217   0.28033   0.58787  -0.85177

