data_crystal

_audit_creation_method 'AiiDA-DDEC plugin'

_cell_length_a         8.34141
_cell_length_b        11.32345
_cell_length_c        27.63082

_cell_angle_alpha     89.74707
_cell_angle_beta     90.32952
_cell_angle_gamma     103.66104

_symmetry_space_group_name_Hall 'P 1'
_symmetry_space_group_name_H-M  'P 1'

loop_
_symmetry_equiv_pos_as_xyz
 'x,y,z'

loop_
_atom_site_label
_atom_site_type_symbol
_atom_site_fract_x
_atom_site_fract_y
_atom_site_fract_z
_atom_site_charge
Mn         Mn      0.24377   0.37231   0.20341   0.95388
Mn         Mn      0.25730   0.62697   0.70357   0.95008
Mn         Mn      0.75623   0.62769   0.79659   0.95391
Mn         Mn      0.74270   0.37303   0.29644   0.95012
H          H       0.43590   0.48521   0.12108   0.27935
H          H       0.67420   0.38946   0.11889   0.12582
H          H       0.79511   0.52175   0.14553   0.10830
H          H       0.46698   0.69910   0.01765   0.12695
H          H       0.56901   0.68468   0.93328   0.11422
H          H       0.01778   0.61394   0.98946   0.11459
H          H       0.91738   0.62661   0.07384   0.11305
H          H       0.06502   0.53495   0.14312   0.09158
H          H       0.04185   0.74903   0.14020   0.12378
H          H       0.34751   0.81115   0.26926   0.11731
H          H       0.35995   0.59782   0.26566   0.08823
H          H       0.03076   0.14444   0.14400   0.10302
H          H       0.03952   0.92830   0.13862   0.13525
H          H       0.30505   0.97408   0.27525   0.11773
H          H       0.28309   0.18731   0.27472   0.10450
H          H       0.06315   0.51805   0.62241   0.27864
H          H       0.82096   0.60964   0.61867   0.12577
H          H       0.70511   0.47907   0.64776   0.10875
H          H       0.03675   0.30357   0.51945   0.12694
H          H       0.93527   0.31774   0.43459   0.11414
H          H       0.48671   0.38916   0.48854   0.11463
H          H       0.58579   0.37657   0.57349   0.11381
H          H       0.43770   0.46638   0.64470   0.09150
H          H       0.46442   0.25317   0.64226   0.12370
H          H       0.14771   0.18451   0.76808   0.11609
H          H       0.13390   0.39799   0.76450   0.08922
H          H       0.46342   0.85533   0.64325   0.10329
H          H       0.45332   0.07129   0.63802   0.13584
H          H       0.20549   0.02536   0.77670   0.12022
H          H       0.22477   0.81131   0.77551   0.10443
H          H       0.56410   0.51479   0.87892   0.27936
H          H       0.32580   0.61053   0.88111   0.12583
H          H       0.20489   0.47825   0.85447   0.10834
H          H       0.53302   0.30090   0.98235   0.12693
H          H       0.43098   0.31532   0.06672   0.11427
H          H       0.98222   0.38606   0.01054   0.11460
H          H       0.08262   0.37339   0.92616   0.11305
H          H       0.93498   0.46505   0.85688   0.09156
H          H       0.95814   0.25096   0.85980   0.12382
H          H       0.65249   0.18885   0.73074   0.11733
H          H       0.64005   0.40218   0.73434   0.08822
H          H       0.96924   0.85556   0.85600   0.10302
H          H       0.96047   0.07170   0.86138   0.13520
H          H       0.69494   0.02592   0.72475   0.11770
H          H       0.71691   0.81269   0.72528   0.10451
H          H       0.93685   0.48194   0.37759   0.27870
H          H       0.17904   0.39035   0.38133   0.12586
H          H       0.29488   0.52093   0.35224   0.10870
H          H       0.96325   0.69643   0.48055   0.12698
H          H       0.06473   0.68226   0.56542   0.11415
H          H       0.51328   0.61084   0.51146   0.11461
H          H       0.41421   0.62342   0.42651   0.11381
H          H       0.56230   0.53361   0.35530   0.09152
H          H       0.53557   0.74683   0.35774   0.12371
H          H       0.85228   0.81549   0.23192   0.11608
H          H       0.86610   0.60201   0.23550   0.08921
H          H       0.53658   0.14467   0.35675   0.10331
H          H       0.54668   0.92871   0.36198   0.13587
H          H       0.79451   0.97464   0.22330   0.12022
H          H       0.77523   0.18869   0.22449   0.10439
C          C       0.63676   0.40564   0.19499   0.61515
C          C       0.67098   0.46247   0.14482  -0.15384
C          C       0.68551   0.66343   0.05049  -0.08597
C          C       0.58634   0.67931   0.01112  -0.10047
C          C       0.64371   0.67091   0.96422  -0.09347
C          C       0.79917   0.64722   0.95633  -0.03961
C          C       0.89707   0.63136   0.99619  -0.08939
C          C       0.84081   0.63896   0.04317  -0.10202
C          C       0.86473   0.64030   0.90600   0.55924
C          C       0.12694   0.60068   0.16988   0.09237
C          C       0.11638   0.72117   0.16843  -0.15381
C          C       0.19358   0.80261   0.20447   0.09636
C          C       0.28412   0.75599   0.23978  -0.15974
C          C       0.29068   0.63494   0.23851   0.09672
C          C       0.09130   0.10282   0.17214   0.08864
C          C       0.09814   0.98157   0.16933  -0.17393
C          C       0.17882   0.93007   0.20596   0.10084
C          C       0.24406   0.00655   0.24485  -0.17014
C          C       0.23175   0.12641   0.24524   0.09092
C          C       0.86656   0.59908   0.69519   0.61635
C          C       0.82835   0.53922   0.64569  -0.15418
C          C       0.81790   0.33942   0.55131  -0.08748
C          C       0.91739   0.32335   0.51242  -0.10095
C          C       0.86056   0.33171   0.46520  -0.09281
C          C       0.70538   0.35577   0.45660  -0.03848
C          C       0.60721   0.37166   0.49598  -0.09100
C          C       0.66271   0.36402   0.54324  -0.09940
C          C       0.63925   0.36332   0.40613   0.55781
C          C       0.37451   0.39953   0.67093   0.09362
C          C       0.38669   0.27943   0.66964  -0.15554
C          C       0.30723   0.19652   0.70491   0.09695
C          C       0.21326   0.24124   0.73934  -0.15895
C          C       0.20554   0.36211   0.73800   0.09913
C          C       0.40622   0.89667   0.67189   0.08819
C          C       0.39904   0.01791   0.66920  -0.17340
C          C       0.32280   0.06925   0.70644   0.09927
C          C       0.26226   0.99269   0.74578  -0.16971
C          C       0.27385   0.87262   0.74590   0.09185
C          C       0.36324   0.59436   0.80501   0.61522
C          C       0.32902   0.53753   0.85518  -0.15387
C          C       0.31449   0.33657   0.94951  -0.08597
C          C       0.41366   0.32069   0.98888  -0.10047
C          C       0.35629   0.32909   0.03578  -0.09356
C          C       0.20083   0.35278   0.04367  -0.03951
C          C       0.10293   0.36863   0.00381  -0.08940
C          C       0.15919   0.36104   0.95683  -0.10202
C          C       0.13527   0.35970   0.09400   0.55911
C          C       0.87306   0.39932   0.83012   0.09246
C          C       0.88362   0.27883   0.83157  -0.15386
C          C       0.80641   0.19738   0.79553   0.09632
C          C       0.71587   0.24401   0.76022  -0.15970
C          C       0.70931   0.36506   0.76149   0.09681
C          C       0.90870   0.89718   0.82786   0.08866
C          C       0.90185   0.01843   0.83067  -0.17391
C          C       0.82117   0.06993   0.79404   0.10086
C          C       0.75593   0.99345   0.75515  -0.17020
C          C       0.76825   0.87358   0.75476   0.09099
C          C       0.13344   0.40091   0.30481   0.61637
C          C       0.17165   0.46078   0.35431  -0.15423
C          C       0.18210   0.66058   0.44869  -0.08737
C          C       0.08260   0.67664   0.48758  -0.10102
C          C       0.13943   0.66829   0.53480  -0.09271
C          C       0.29462   0.64423   0.54340  -0.03853
C          C       0.39279   0.62834   0.50402  -0.09096
C          C       0.33729   0.63598   0.45676  -0.09954
C          C       0.36074   0.63668   0.59387   0.55780
C          C       0.62549   0.60047   0.32907   0.09369
C          C       0.61331   0.72057   0.33036  -0.15554
C          C       0.69277   0.80348   0.29509   0.09695
C          C       0.78674   0.75876   0.26066  -0.15904
C          C       0.79446   0.63789   0.26200   0.09912
C          C       0.59377   0.10332   0.32811   0.08834
C          C       0.60095   0.98208   0.33080  -0.17344
C          C       0.67720   0.93075   0.29356   0.09929
C          C       0.73773   0.00731   0.25422  -0.16976
C          C       0.72615   0.12737   0.25410   0.09189
S          S       0.61172   0.67236   0.11051   1.08181
S          S       0.89046   0.33030   0.61171   1.08230
S          S       0.38828   0.32764   0.88949   1.08173
S          S       0.10954   0.66970   0.38829   1.08226
N          N       0.55308   0.53321   0.13086  -0.47036
N          N       0.21063   0.55617   0.20483  -0.24684
N          N       0.15800   0.17626   0.20929  -0.25919
N          N       0.94664   0.46899   0.63238  -0.47268
N          N       0.28749   0.44222   0.70506  -0.24881
N          N       0.34358   0.82297   0.70942  -0.25849
N          N       0.44692   0.46678   0.86914  -0.47038
N          N       0.78936   0.44383   0.79517  -0.24708
N          N       0.84200   0.82374   0.79071  -0.25917
N          N       0.05336   0.53101   0.36763  -0.47272
N          N       0.71250   0.55778   0.29494  -0.24878
N          N       0.65642   0.17703   0.29058  -0.25864
O          O       0.49158   0.38083   0.21210  -0.55902
O          O       0.76073   0.38675   0.21797  -0.55314
O          O       0.46463   0.71986   0.10724  -0.52719
O          O       0.75388   0.73275   0.13981  -0.56135
O          O       0.75362   0.63101   0.87156  -0.59851
O          O       0.01324   0.64298   0.89965  -0.54368
O          O       0.01289   0.62551   0.71168  -0.55408
O          O       0.74431   0.61892   0.71831  -0.55622
O          O       0.03978   0.28554   0.60942  -0.52825
O          O       0.74788   0.26716   0.64005  -0.56066
O          O       0.74777   0.36881   0.37162  -0.59582
O          O       0.49158   0.36433   0.39970  -0.54358
O          O       0.50842   0.61917   0.78790  -0.55909
O          O       0.23927   0.61325   0.78203  -0.55314
O          O       0.53537   0.28014   0.89276  -0.52719
O          O       0.24611   0.26725   0.86019  -0.56127
O          O       0.24637   0.36899   0.12844  -0.59851
O          O       0.98676   0.35702   0.10035  -0.54353
O          O       0.98711   0.37449   0.28832  -0.55402
O          O       0.25569   0.38108   0.28169  -0.55629
O          O       0.96022   0.71446   0.39058  -0.52820
O          O       0.25211   0.73284   0.35995  -0.56074
O          O       0.25223   0.63119   0.62839  -0.59580
O          O       0.50841   0.63567   0.60030  -0.54359

