data_crystal

_audit_creation_method 'AiiDA-DDEC plugin'

_cell_length_a        12.46111
_cell_length_b        15.87633
_cell_length_c        15.87633

_cell_angle_alpha     90.00046
_cell_angle_beta     89.99908
_cell_angle_gamma     90.00092

_symmetry_space_group_name_Hall 'P 1'
_symmetry_space_group_name_H-M  'P 1'

loop_
_symmetry_equiv_pos_as_xyz
 'x,y,z'

loop_
_atom_site_label
_atom_site_type_symbol
_atom_site_fract_x
_atom_site_fract_y
_atom_site_fract_z
_atom_site_charge
Cu         Cu      0.62366   0.51873   0.00233   0.34178
Cu         Cu      0.12354   0.48123   0.99765   0.34274
Cu         Cu      0.87349   0.49765   0.01875   0.34218
Cu         Cu      0.37372   0.50234   0.98125   0.34231
Cu         Cu      0.62628   0.98125   0.50234   0.34229
Cu         Cu      0.12651   0.01875   0.49765   0.34218
Cu         Cu      0.37635   0.00233   0.51873   0.34182
Cu         Cu      0.87647   0.99765   0.48123   0.34279
H          H       0.24579   0.59416   0.82292   0.11742
H          H       0.24015   0.62245   0.92983   0.10729
H          H       0.76136   0.70854   0.71684   0.08602
H          H       0.75262   0.64231   0.94703   0.10445
H          H       0.76095   0.59969   0.84671   0.12674
H          H       0.13062   0.71968   0.83858   0.10643
H          H       0.23305   0.77464   0.89236   0.09428
H          H       0.86667   0.72935   0.84748   0.10827
H          H       0.76065   0.78852   0.89198   0.09072
H          H       0.74580   0.40586   0.17712   0.11861
H          H       0.74016   0.37758   0.07022   0.10736
H          H       0.26137   0.29149   0.28317   0.08637
H          H       0.25263   0.35769   0.05297   0.10397
H          H       0.26098   0.40033   0.15328   0.12681
H          H       0.63063   0.28035   0.16145   0.10715
H          H       0.73306   0.22539   0.10766   0.09439
H          H       0.36666   0.27066   0.15252   0.10857
H          H       0.26063   0.21149   0.10803   0.09020
H          H       0.49579   0.67710   0.09416   0.11842
H          H       0.49013   0.57020   0.12245   0.10723
H          H       0.01135   0.78317   0.20852   0.08608
H          H       0.00261   0.55297   0.14231   0.10422
H          H       0.01094   0.65329   0.09969   0.12721
H          H       0.38060   0.66144   0.21967   0.10646
H          H       0.48303   0.60766   0.27464   0.09584
H          H       0.11664   0.65253   0.22935   0.10809
H          H       0.01061   0.60804   0.28852   0.09001
H          H       0.99580   0.32291   0.90587   0.11798
H          H       0.99018   0.42981   0.87757   0.10673
H          H       0.51138   0.21685   0.79149   0.08657
H          H       0.50264   0.44703   0.85770   0.10409
H          H       0.51099   0.34672   0.90032   0.12671
H          H       0.88065   0.33857   0.78034   0.10710
H          H       0.98308   0.39235   0.72539   0.09577
H          H       0.61669   0.34749   0.77066   0.10839
H          H       0.51066   0.39199   0.71150   0.09013
H          H       0.00420   0.90587   0.32291   0.11803
H          H       0.00982   0.87757   0.42981   0.10671
H          H       0.48862   0.79149   0.21684   0.08660
H          H       0.49736   0.85770   0.44703   0.10404
H          H       0.48902   0.90032   0.34672   0.12670
H          H       0.11935   0.78034   0.33857   0.10714
H          H       0.01692   0.72539   0.39235   0.09569
H          H       0.38331   0.77066   0.34749   0.10831
H          H       0.48934   0.71150   0.39199   0.09012
H          H       0.50421   0.09416   0.67710   0.11843
H          H       0.50987   0.12245   0.57020   0.10723
H          H       0.98865   0.20852   0.78317   0.08605
H          H      -0.00261   0.14231   0.55297   0.10422
H          H       0.98906   0.09969   0.65329   0.12714
H          H       0.61940   0.21967   0.66144   0.10651
H          H       0.51697   0.27464   0.60766   0.09586
H          H       0.88336   0.22935   0.65253   0.10851
H          H       0.98939   0.28852   0.60804   0.09004
H          H       0.75421   0.82292   0.59416   0.11743
H          H       0.75985   0.92983   0.62245   0.10733
H          H       0.23864   0.71684   0.70854   0.08599
H          H       0.24739   0.94703   0.64231   0.10446
H          H       0.23905   0.84671   0.59969   0.12669
H          H       0.86938   0.83858   0.71968   0.10649
H          H       0.76695   0.89236   0.77464   0.09429
H          H       0.13333   0.84748   0.72935   0.10826
H          H       0.23935   0.89198   0.78851   0.09077
H          H       0.25420   0.17712   0.40586   0.11862
H          H       0.25984   0.07022   0.37758   0.10740
H          H       0.73863   0.28317   0.29149   0.08634
H          H       0.74737   0.05297   0.35769   0.10392
H          H       0.73902   0.15328   0.40033   0.12682
H          H       0.36937   0.16145   0.28035   0.10719
H          H       0.26694   0.10766   0.22539   0.09437
H          H       0.63334   0.15252   0.27066   0.10853
H          H       0.73937   0.10803   0.21149   0.09024
C          C       0.60934   0.65374   0.87464   0.21241
C          C       0.55707   0.70849   0.81621  -0.05071
C          C       0.61578   0.76078   0.76127   0.03516
C          C       0.44223   0.70753   0.81479  -0.04759
C          C       0.38923   0.64932   0.86924   0.20808
C          C       0.26920   0.64370   0.86802  -0.24023
C          C       0.73693   0.75909   0.76071  -0.01730
C          C       0.72928   0.65443   0.88145  -0.24062
C          C       0.21800   0.72772   0.84278  -0.16767
C          C       0.77898   0.73635   0.84873  -0.17112
C          C       0.10934   0.34630   0.12538   0.21034
C          C       0.05708   0.29154   0.18381  -0.04639
C          C       0.11578   0.23925   0.23876   0.03364
C          C       0.94223   0.29250   0.18525  -0.04924
C          C       0.88923   0.35071   0.13080   0.20854
C          C       0.76920   0.35633   0.13202  -0.24211
C          C       0.23693   0.24093   0.23930  -0.01712
C          C       0.22929   0.34558   0.11855  -0.24040
C          C       0.71801   0.27230   0.15725  -0.16850
C          C       0.27898   0.26366   0.15127  -0.17059
C          C       0.85932   0.62537   0.15373   0.21331
C          C       0.80706   0.68381   0.20848  -0.05132
C          C       0.86576   0.73875   0.26076   0.03533
C          C       0.69221   0.68523   0.20752  -0.04772
C          C       0.63921   0.63077   0.14932   0.20798
C          C       0.51918   0.63200   0.14370  -0.24149
C          C       0.98691   0.73931   0.25908  -0.01623
C          C       0.97927   0.61856   0.15443  -0.24177
C          C       0.46798   0.65724   0.22772  -0.16912
C          C       0.02896   0.65128   0.23634  -0.16970
C          C       0.35936   0.37463   0.84629   0.21069
C          C       0.30710   0.31620   0.79154  -0.04762
C          C       0.36580   0.26126   0.73924   0.03374
C          C       0.19225   0.31477   0.79250  -0.05006
C          C       0.13925   0.36921   0.85072   0.21178
C          C       0.01922   0.36800   0.85633  -0.24100
C          C       0.48695   0.26071   0.74092  -0.01753
C          C       0.47931   0.38145   0.84558  -0.23968
C          C       0.96803   0.34277   0.77230  -0.17044
C          C       0.52900   0.34874   0.76366  -0.17113
C          C       0.64064   0.84629   0.37463   0.21069
C          C       0.69291   0.79154   0.31620  -0.04769
C          C       0.63420   0.73924   0.26126   0.03374
C          C       0.80776   0.79250   0.31477  -0.04993
C          C       0.86075   0.85072   0.36921   0.21182
C          C       0.98079   0.85633   0.36800  -0.24095
C          C       0.51305   0.74092   0.26071  -0.01757
C          C       0.52069   0.84558   0.38145  -0.23966
C          C       0.03198   0.77230   0.34277  -0.17041
C          C       0.47100   0.76366   0.34874  -0.17112
C          C       0.14068   0.15373   0.62537   0.21332
C          C       0.19294   0.20848   0.68381  -0.05126
C          C       0.13424   0.26076   0.73875   0.03547
C          C       0.30779   0.20752   0.68523  -0.04781
C          C       0.36079   0.14932   0.63077   0.20795
C          C       0.48082   0.14370   0.63200  -0.24152
C          C       0.01309   0.25908   0.73931  -0.01635
C          C       0.02074   0.15443   0.61856  -0.24177
C          C       0.53202   0.22772   0.65724  -0.16905
C          C       0.97105   0.23635   0.65128  -0.17020
C          C       0.39066   0.87464   0.65374   0.21235
C          C       0.44293   0.81621   0.70849  -0.05073
C          C       0.38422   0.76127   0.76077   0.03517
C          C       0.55777   0.81479   0.70753  -0.04755
C          C       0.61078   0.86924   0.64931   0.20791
C          C       0.73081   0.86802   0.64370  -0.24012
C          C       0.26307   0.76071   0.75909  -0.01716
C          C       0.27072   0.88145   0.65443  -0.24043
C          C       0.78200   0.84278   0.72772  -0.16768
C          C       0.22102   0.84874   0.73635  -0.17139
C          C       0.89066   0.12538   0.34630   0.21045
C          C       0.94292   0.18381   0.29154  -0.04646
C          C       0.88422   0.23876   0.23925   0.03355
C          C       0.05777   0.18525   0.29250  -0.04929
C          C       0.11077   0.13080   0.35071   0.20854
C          C       0.23080   0.13202   0.35633  -0.24218
C          C       0.76307   0.23931   0.24093  -0.01706
C          C       0.77071   0.11855   0.34558  -0.24042
C          C       0.28200   0.15725   0.27230  -0.16846
C          C       0.72103   0.15127   0.26366  -0.17066
N          N       0.55456   0.60116   0.92389  -0.16082
N          N       0.44324   0.59828   0.92049  -0.16079
N          N       0.05454   0.39887   0.07615  -0.16045
N          N       0.94322   0.40175   0.07954  -0.16055
N          N       0.80452   0.57611   0.10117  -0.16145
N          N       0.69320   0.57950   0.09830  -0.16020
N          N       0.30457   0.42386   0.89888  -0.15979
N          N       0.19325   0.42046   0.90176  -0.16277
N          N       0.69543   0.89888   0.42386  -0.15974
N          N       0.80675   0.90176   0.42046  -0.16290
N          N       0.19548   0.10117   0.57611  -0.16155
N          N       0.30680   0.09830   0.57950  -0.16013
N          N       0.44545   0.92389   0.60116  -0.16085
N          N       0.55676   0.92049   0.59828  -0.16060
N          N       0.94546   0.07615   0.39887  -0.16061
N          N       0.05678   0.07954   0.40175  -0.16045
Cl         Cl      0.74871   0.44136   0.92067  -0.48250
Cl         Cl      0.24876   0.55864   0.07930  -0.48293
Cl         Cl     -0.00129   0.57931   0.94138  -0.48261
Cl         Cl      0.49877   0.42066   0.05866  -0.48278
Cl         Cl      0.50123   0.05866   0.42066  -0.48277
Cl         Cl      0.00130   0.94138   0.57931  -0.48265
Cl         Cl      0.25129   0.92067   0.44136  -0.48251
Cl         Cl      0.75124   0.07930   0.55864  -0.48291

