data_crystal

_audit_creation_method 'AiiDA-DDEC plugin'

_cell_length_a        12.86957
_cell_length_b        13.65028
_cell_length_c        23.44533

_cell_angle_alpha     108.03733
_cell_angle_beta     108.11123
_cell_angle_gamma     86.50275

_symmetry_space_group_name_Hall 'P 1'
_symmetry_space_group_name_H-M  'P 1'

loop_
_symmetry_equiv_pos_as_xyz
 'x,y,z'

loop_
_atom_site_label
_atom_site_type_symbol
_atom_site_fract_x
_atom_site_fract_y
_atom_site_fract_z
_atom_site_charge
Cd         Cd      0.85997   0.51480   0.00608   1.16407
Cd         Cd      0.82746   0.30066   0.04352   0.99223
Cd         Cd      0.80338   0.73278   0.96253   1.03635
Cd         Cd      0.78307   0.05962   0.95731   1.08321
H          H       0.05427   0.21498   0.20408   0.12510
H          H       0.80847   0.97045   0.12894   0.11768
H          H       0.46377   0.09218   0.63742   0.12527
H          H       0.89077   0.63337   0.34935   0.11406
H          H       0.93665   0.00594   0.75262   0.10670
H          H       0.65880   0.82790   0.58254   0.11821
H          H       0.29952   0.92336   0.36576   0.11699
H          H       0.56990   0.52077   0.75420   0.12421
H          H       0.20143   0.61166   0.10988   0.12339
H          H       0.61576   0.89371   0.10004   0.12301
H          H       0.77214   0.64921   0.16938   0.10384
H          H       0.15484   0.12193   0.49115   0.11640
H          H       0.86289   0.38965   0.84329   0.10936
H          H       0.12559   0.73761   0.28151   0.10675
H          H       0.23956   0.16252   0.77321   0.10639
H          H       0.91706   0.04544   0.65256   0.10866
H          H       0.59811   0.98783   0.20629   0.12024
H          H       0.61490   0.33436   0.83684   0.11146
H          H       0.50262   0.09718   0.89132   0.11950
H          H       0.69925   0.13701   0.71011   0.10578
H          H       0.85156   0.75571   0.76729   0.12985
H          H       0.04235   0.89765   0.15633   0.10926
H          H       0.37300   0.02734   0.78298   0.12388
H          H       0.35831   0.67820   0.20783   0.11821
H          H       0.64651   0.98491   0.84521   0.07920
H          H       0.80298   0.81509   0.67213   0.11858
H          H       0.98609   0.99284   0.56104   0.12124
H          H       0.12145   0.17086   0.30455   0.11148
H          H       0.83772   0.99734   0.34575   0.13278
H          H       0.72745   0.35288   0.59002   0.14222
H          H       0.63964   0.89606   0.49440   0.11624
H          H       0.05009   0.60632   0.17733   0.11633
H          H       0.12753   0.28838   0.81134   0.12191
H          H       0.85116   0.25539   0.74171   0.10243
H          H       0.99053   0.85862   0.28588   0.10905
H          H       0.06227   0.35280   0.90554   0.12877
H          H       0.46231   0.00716   0.45075   0.12510
H          H       0.87541   0.06872   0.84723   0.08143
H          H       0.86872   0.93002   0.22984   0.10146
H          H       0.19318   0.96154   0.25686   0.10222
H          H       0.09858   0.17217   0.39422   0.11897
H          H       0.04380   0.68122   0.43876   0.14079
H          H       0.48917   0.83054   0.23660   0.11286
H          H       0.60711   0.04989   0.75463   0.10289
H          H       0.81797   0.49922   0.24473   0.12999
H          H       0.55692   0.38604   0.65120   0.11640
H          H       0.48575   0.26505   0.72841   0.11217
H          H       0.75903   0.74351   0.27593   0.10369
C          C       0.71653   0.46280   0.80520  -0.03450
C          C       0.87567   0.01475   0.16802  -0.08021
C          C       0.05763   0.68642   0.27375  -0.12538
C          C       0.03656   0.14266   0.77545   0.07588
C          C       0.22825   0.08265   0.67650   0.02438
C          C       0.28848   0.72591   0.19700  -0.14163
C          C       0.46994   0.96812   0.40415  -0.09111
C          C       0.18569   0.12068   0.72698  -0.17980
C          C       0.70978   0.27148   0.58075  -0.24463
C          C       0.09169   0.09165   0.39129  -0.13705
C          C       0.00410   0.05415   0.65952  -0.13137
C          C       0.62338   0.38650   0.69349  -0.14358
C          C       0.66036   0.05660   0.55070   0.03206
C          C       0.93027   0.11706   0.83941  -0.08789
C          C       0.56720   0.21953   0.87056  -0.05134
C          C       0.01854   0.71066   0.06725   0.58885
C          C       0.57828   0.91907   0.33091   0.03243
C          C       0.96417   0.08192   0.78590  -0.13306
C          C       0.19337   0.00468   0.56082  -0.05108
C          C       0.12927   0.93829   0.50272  -0.02486
C          C       0.11064   0.84934   0.16855  -0.08781
C          C       0.49850   0.13302   0.85523  -0.09895
C          C       0.65178   0.94921   0.54152  -0.09238
C          C       0.69873   0.20536   0.51679   0.35767
C          C       0.42567   0.09472   0.79487  -0.12581
C          C       0.79006   0.83535   0.87163   0.55955
C          C       0.64601   0.86107   0.13876  -0.08958
C          C       0.07524   0.10462   0.71995   0.07506
C          C       0.79829   0.82008   0.76391  -0.07262
C          C       0.67923   0.87299   0.24879   0.07385
C          C       0.48464   0.86718   0.28402  -0.17639
C          C       0.70372   0.93851   0.70709   0.08208
C          C       0.01511   0.15281   0.21071  -0.08517
C          C       0.79525   0.38740   0.80127  -0.08863
C          C       0.88561   0.55173   0.25390  -0.08798
C          C       0.76379   0.98866   0.35716  -0.24664
C          C       0.04342   0.02200   0.60820  -0.05636
C          C       0.78810   0.31198   0.74409  -0.13939
C          C       0.56183   0.26720   0.82467  -0.07456
C          C       0.92558   0.25723   0.93816   0.61464
C          C       0.07293   0.24021   0.81962  -0.13391
C          C       0.92856   0.54597   0.20477  -0.03192
C          C       0.73467   0.72343   0.17791  -0.08688
C          C       0.64766   0.25790   0.93435   0.58629
C          C       0.37724   0.92055   0.35594  -0.13095
C          C       0.28664   0.82457   0.23953   0.06510
C          C       0.37843   0.07901   0.63254  -0.25529
C          C       0.66505   0.03256   0.43957  -0.01096
C          C       0.77021   0.85314   0.71071  -0.12679
C          C       0.15625   0.03170   0.61542   0.03311
C          C       0.87913   0.46968   0.14225   0.57395
C          C       0.72779   0.54860   0.86498   0.57911
C          C       0.69632   0.23596   0.62647   0.05161
C          C       0.91098   0.99160   0.22450  -0.12927
C          C       0.05120   0.12854   0.26684  -0.13615
C          C       0.42048   0.14157   0.74833   0.08156
C          C       0.75863   0.87029   0.81468  -0.05376
C          C       0.04154   0.01807   0.33263   0.07716
C          C       0.92770   0.09535   0.16081  -0.03664
C          C       0.03670   0.27653   0.87211  -0.07970
C          C       0.19532   0.88475   0.22502  -0.13514
C          C       0.67740   0.12569   0.61348   0.03258
C          C       0.48971   0.22794   0.76393  -0.13014
C          C       0.12454   0.06328   0.44573  -0.06005
C          C       0.06662   0.88448   0.38512   0.02895
C          C       0.67161   0.09405   0.50209  -0.03467
C          C       0.72682   0.77649   0.23754  -0.14313
C          C       0.68733   0.95148   0.80955  -0.12683
C          C       0.34326   0.09982   0.68415   0.05942
C          C       0.04890   0.77850   0.38335   0.06533
C          C       0.57305   0.96992   0.39363   0.01554
C          C       0.08392   0.83719   0.49983   0.36312
C          C       0.66194   0.98659   0.75731  -0.11909
C          C       0.01615   0.61232   0.21530  -0.08360
C          C       0.76782   0.03517   0.42270   0.36841
C          C       0.05939   0.75839   0.43833  -0.26261
C          C       0.20148   0.68875   0.14195  -0.08920
C          C       0.96522   0.21501   0.88259  -0.05170
C          C       0.63005   0.46143   0.75077  -0.08620
C          C       0.00017   0.04706   0.27451   0.06753
C          C       0.01193   0.69593   0.32248   0.07407
C          C       0.68151   0.97818   0.65295   0.06562
C          C       0.11344   0.96004   0.44455   0.03048
C          C       0.68441   0.08465   0.66253  -0.17727
C          C       0.30647   0.03948   0.56772   0.35818
C          C       0.72012   0.71396   0.06698   0.59753
C          C       0.11240   0.75083   0.12665  -0.03424
C          C       0.70256   0.31099   0.68920   0.07746
C          C       0.92676   0.62612   0.31200  -0.13286
C          C       0.03012   0.91537   0.33082  -0.17613
C          C       0.69689   0.76603   0.12831  -0.03319
C          C       0.38312   0.86887   0.29461   0.09049
C          C       0.89037   0.12098   0.10066   0.58173
C          C       0.67591   0.92934   0.31385   0.05887
C          C       0.66352   0.91073   0.59106  -0.13447
C          C       0.63662   0.91371   0.19831  -0.13899
O          O       0.92105   0.46185   0.09717  -0.60214
O          O       0.70409   0.76658   0.02870  -0.55625
O          O       0.67148   0.19516   0.96891  -0.61871
O          O       0.83605   0.75164   0.87133  -0.47467
O          O       0.01165   0.61322   0.04042  -0.59083
O          O       0.93544   0.35313   0.96591  -0.56204
O          O       0.95287   0.77635   0.04855  -0.55872
O          O       0.34330   0.02904   0.52296  -0.41811
O          O       0.66115   0.61948   0.86662  -0.51987
O          O       0.07396   0.81496   0.54548  -0.40155
O          O       0.69839   0.24271   0.47441  -0.40769
O          O       0.88352   0.19412   0.95753  -0.63278
O          O       0.76656   0.89162   0.92242  -0.59346
O          O       0.82035   0.05732   0.05409  -0.56206
O          O       0.80100   0.40978   0.13460  -0.51843
O          O       0.69258   0.34665   0.95433  -0.53686
O          O       0.75709   0.62326   0.05965  -0.60603
O          O       0.85690   0.06162   0.46541  -0.40335
O          O       0.81501   0.55128   0.91320  -0.64871
O          O       0.92972   0.20338   0.09947  -0.55421

