data_crystal

_audit_creation_method 'AiiDA-DDEC plugin'

_cell_length_a        15.99686
_cell_length_b        17.59553
_cell_length_c        18.91930

_cell_angle_alpha     68.62977
_cell_angle_beta     68.27236
_cell_angle_gamma     74.36948

_symmetry_space_group_name_Hall 'P 1'
_symmetry_space_group_name_H-M  'P 1'

loop_
_symmetry_equiv_pos_as_xyz
 'x,y,z'

loop_
_atom_site_label
_atom_site_type_symbol
_atom_site_fract_x
_atom_site_fract_y
_atom_site_fract_z
_atom_site_charge
K          K       0.20558   0.98211   0.97082   0.89690
K          K       0.39321   0.82868   0.83454   0.91504
K          K       0.63656   0.90656   0.98672   0.90905
K          K       0.79525   0.01853   0.02844   0.89757
K          K       0.60689   0.17168   0.16520   0.91523
K          K       0.36438   0.09344   0.01388   0.90811
Zn         Zn      0.40407   0.84006   0.02841   0.93606
Zn         Zn      0.35858   0.06372   0.75654   0.94108
Zn         Zn      0.59603   0.16021   0.97147   0.93613
Zn         Zn      0.64142   0.93592   0.24313   0.94170
H          H       0.94682   0.51689   0.85679   0.11477
H          H       0.19700   0.51228   0.89547   0.10901
H          H       0.96797   0.69998   0.94745   0.10803
H          H       0.84725   0.65072   0.79791   0.11722
H          H       0.68321   0.71322   0.82049   0.11892
H          H       0.66481   0.71160   0.05340   0.10758
H          H       0.82822   0.65371   0.02979   0.09774
H          H       0.25026   0.46952   0.77890   0.11367
H          H       0.32986   0.33061   0.76603   0.11939
H          H       0.08271   0.23061   0.91289   0.10183
H          H       0.00052   0.37055   0.91558   0.10155
H          H       0.08724   0.77168   0.90374   0.10593
H          H       0.17526   0.83020   0.94796   0.10201
H          H       0.29714   0.58538   0.05557   0.12559
H          H       0.21008   0.52600   0.00854   0.11032
H          H       0.92264   0.90705   0.67806   0.10446
H          H       0.17603   0.85348   0.50380   0.11425
H          H       0.92070   0.88896   0.45880   0.11220
H          H       0.81405   0.01711   0.63896   0.09316
H          H       0.64638   0.05792   0.68169   0.11031
H          H       0.61466   0.86453   0.61049   0.11803
H          H       0.78395   0.82661   0.56189   0.11614
H          H       0.00945   0.84803   0.75951   0.11006
H          H       0.07825   0.89777   0.83017   0.10788
H          H       0.27875   0.99289   0.61028   0.12712
H          H       0.20990   0.94666   0.53804   0.10672
H          H       0.21848   0.77409   0.41856   0.12016
H          H       0.31314   0.79259   0.27683   0.11963
H          H       0.11583   0.99721   0.20062   0.10489
H          H       0.02177   0.97406   0.34454   0.08801
H          H       0.48393   0.04040   0.84200   0.03906
H          H       0.05291   0.48311   0.14359   0.11471
H          H       0.80299   0.48759   0.10451   0.10884
H          H       0.03225   0.30014   0.05252   0.10791
H          H       0.15279   0.34933   0.20214   0.11700
H          H       0.31689   0.28673   0.17949   0.11897
H          H       0.33516   0.28862   0.94653   0.10779
H          H       0.17176   0.34662   0.97016   0.09842
H          H       0.74924   0.53051   0.22107   0.11338
H          H       0.67002   0.66947   0.23435   0.11944
H          H       0.91702   0.76941   0.08730   0.10258
H          H      -0.00073   0.62939   0.08448   0.10210
H          H       0.91251   0.22829   0.09686   0.10493
H          H       0.82480   0.16969   0.05243   0.10200
H          H       0.70420   0.41449   0.94343   0.12639
H          H       0.79077   0.47393   0.99093   0.11021
H          H       0.07739   0.09285   0.32205   0.10472
H          H       0.82386   0.14649   0.49616   0.11083
H          H       0.07907   0.11101   0.54136   0.11226
H          H       0.18572   0.98293   0.36111   0.09252
H          H       0.35342   0.94224   0.31778   0.11035
H          H       0.38572   0.13546   0.38873   0.11814
H          H       0.21641   0.17332   0.43795   0.11519
H          H       0.99022   0.15209   0.24053   0.11040
H          H       0.92158   0.10219   0.16992   0.10753
H          H       0.72102   0.00710   0.38983   0.12705
H          H       0.78985   0.05342   0.46200   0.10672
H          H       0.78095   0.22583   0.58152   0.12047
H          H       0.68659   0.20739   0.72330   0.11913
H          H       0.88425   0.00313   0.79933   0.10473
H          H       0.97787   0.02602   0.65536   0.08786
H          H       0.51552   0.96013   0.15802   0.03923
C          C       0.94738   0.61349   0.90140   0.07201
C          C       0.98731   0.54405   0.87380  -0.17971
C          C       0.07773   0.50769   0.87080   0.07767
C          C       0.12781   0.54183   0.89579  -0.18143
C          C       0.08970   0.61135   0.92320   0.06885
C          C      -0.00050   0.64698   0.92494  -0.18456
C          C       0.84984   0.64861   0.91198   0.07158
C          C       0.80732   0.66401   0.85389  -0.13962
C          C       0.71559   0.69897   0.86623  -0.08842
C          C       0.66378   0.71808   0.93753  -0.05992
C          C       0.70530   0.70013   0.99668  -0.12513
C          C       0.79705   0.66696   0.98363  -0.14022
C          C       0.12036   0.42966   0.85022   0.06121
C          C       0.21319   0.41731   0.80691  -0.13334
C          C       0.25828   0.33930   0.80038  -0.10451
C          C       0.21246   0.27076   0.84096  -0.02109
C          C       0.11897   0.28322   0.88124  -0.12024
C          C       0.07275   0.36219   0.88318  -0.12754
C          C       0.14199   0.64477   0.95233   0.07597
C          C       0.13206   0.73045   0.93796  -0.13655
C          C       0.18155   0.76346   0.96367  -0.12557
C          C       0.24189   0.71152   0.00606  -0.05805
C          C       0.25084   0.62557   0.02225  -0.08668
C          C       0.20224   0.59274   0.99532  -0.13859
C          C       0.26344   0.18494   0.84339   0.60083
C          C       0.56674   0.75978   0.95011   0.58519
C          C       0.30040   0.74569   0.02981   0.55008
C          C       0.91100   0.89638   0.57267   0.07745
C          C       0.96008   0.89408   0.62159  -0.18024
C          C       0.05577   0.87952   0.59739   0.06719
C          C       0.10199   0.86302   0.52434  -0.17381
C          C       0.05467   0.86624   0.47312   0.05881
C          C       0.95856   0.88352   0.49826  -0.18058
C          C       0.81075   0.91839   0.59831   0.06696
C          C       0.77074   0.98320   0.63285  -0.14415
C          C       0.67668   0.00647   0.65673  -0.10165
C          C       0.62006   0.96320   0.64924  -0.03928
C          C       0.65942   0.89805   0.61529  -0.09471
C          C       0.75381   0.87684   0.58863  -0.14138
C          C       0.10417   0.89437   0.64326   0.07031
C          C       0.06837   0.87983   0.72645  -0.14385
C          C       0.10696   0.90675   0.76637  -0.10466
C          C       0.18238   0.94843   0.72473  -0.05172
C          C       0.22036   0.96045   0.64243  -0.08314
C          C       0.18201   0.93350   0.60241  -0.13327
C          C       0.10516   0.86344   0.39225   0.05037
C          C       0.19209   0.81899   0.37133  -0.15506
C          C       0.24751   0.83114   0.29218  -0.07866
C          C       0.22079   0.89826   0.23043  -0.06726
C          C       0.13665   0.94569   0.24722  -0.10515
C          C       0.06460   0.91960   0.32634   0.03001
C          C       0.51876   0.98271   0.68159   0.58459
C          C       0.22108   0.98079   0.76711   0.56635
C          C       0.28170   0.91518   0.14589   0.59433
C          C       0.44212   0.99176   0.88328   0.48284
C          C       0.94363   0.88315   0.14390   0.55681
C          C       0.00700   0.88412   0.30452  -0.14598
C          C       0.97519   0.87098   0.26146   0.07929
C          C       0.05264   0.38661   0.09872   0.07287
C          C       0.01255   0.45596   0.12644  -0.17897
C          C       0.92212   0.49230   0.12935   0.07669
C          C       0.87217   0.45810   0.10429  -0.18095
C          C       0.91041   0.38861   0.07686   0.06858
C          C       0.00063   0.35310   0.07508  -0.18524
C          C       0.15020   0.35152   0.08808   0.07210
C          C       0.19275   0.33600   0.14617  -0.13974
C          C       0.28450   0.30105   0.13375  -0.08817
C          C       0.33635   0.28215   0.06232  -0.06102
C          C       0.29470   0.30010   0.00325  -0.12346
C          C       0.20293   0.33325   0.01638  -0.14234
C          C       0.87938   0.57030   0.14997   0.06266
C          C       0.78653   0.58259   0.19335  -0.13439
C          C       0.74160   0.66057   0.20009  -0.10219
C          C       0.78748   0.72906   0.15951  -0.02352
C          C       0.88093   0.71669   0.11908  -0.11827
C          C       0.92709   0.63773   0.11706  -0.12797
C          C       0.85833   0.35516   0.04759   0.07587
C          C       0.86805   0.26946   0.06225  -0.13392
C          C       0.81871   0.23644   0.03641  -0.12828
C          C       0.75882   0.28841   0.99355  -0.05740
C          C       0.75014   0.37435   0.97710  -0.08823
C          C       0.79851   0.40720   0.00421  -0.13761
C          C       0.73662   0.81485   0.15675   0.59933
C          C       0.43351   0.24071   0.04955   0.58455
C          C       0.70007   0.25435   0.96989   0.55072
C          C       0.08894   0.10358   0.42744   0.07758
C          C       0.03988   0.10588   0.37848  -0.18066
C          C       0.94418   0.12040   0.40262   0.06765
C          C       0.89790   0.13695   0.47563  -0.17107
C          C       0.94515   0.13380   0.52687   0.05971
C          C       0.04129   0.11647   0.50183  -0.18040
C          C       0.18923   0.08156   0.40174   0.06699
C          C       0.22912   0.01680   0.36711  -0.14477
C          C       0.32316   0.99364   0.34282  -0.10014
C          C       0.37988   0.03706   0.34998  -0.04124
C          C       0.34073   0.10201   0.38416  -0.09505
C          C       0.24636   0.12310   0.41121  -0.13943
C          C       0.89573   0.10554   0.35681   0.07060
C          C       0.93143   0.12011   0.27363  -0.14384
C          C       0.89287   0.09313   0.23372  -0.10343
C          C       0.81746   0.05141   0.27534  -0.05302
C          C       0.77948   0.03945   0.35764  -0.08423
C          C       0.81786   0.06644   0.39764  -0.13298
C          C       0.89454   0.13666   0.60771   0.04932
C          C       0.80751   0.18099   0.62869  -0.15489
C          C       0.75219   0.16885   0.70787  -0.07805
C          C       0.77913   0.10182   0.76957  -0.07051
C          C       0.86331   0.05451   0.75272  -0.10409
C          C       0.93523   0.08054   0.67356   0.02972
C          C       0.48111   0.01760   0.31753   0.58457
C          C       0.77877   0.01910   0.23285   0.56833
C          C       0.71843   0.08476   0.85414   0.59640
C          C       0.55753   0.00860   0.11672   0.48092
C          C       0.05640   0.11772   0.85622   0.55065
C          C       0.99303   0.11583   0.69537  -0.14436
C          C       0.02472   0.12853   0.73880   0.07856
N          N       0.94309   0.85767   0.21277  -0.21132
N          N       0.05679   0.14174   0.78749  -0.20576
O          O       0.52452   0.76877   0.90290  -0.61373
O          O       0.53274   0.78770   0.01210  -0.61443
O          O       0.26243   0.13239   0.91034  -0.68673
O          O       0.30511   0.17248   0.77490  -0.55846
O          O       0.30424   0.82580   0.99626  -0.69007
O          O       0.34594   0.70094   0.07502  -0.49909
O          O       0.48711   0.05579   0.69154  -0.57165
O          O       0.47075   0.92840   0.70007  -0.63421
O          O       0.20087   0.95504   0.84225  -0.66394
O          O       0.27493   0.03424   0.72123  -0.55901
O          O       0.25816   0.97722   0.09263  -0.69937
O          O       0.35508   0.86234   0.13264  -0.56078
O          O       0.38321   0.97786   0.86101  -0.58984
O          O       0.45602   0.95457   0.95042  -0.58876
O          O       0.94131   0.90182   0.07751  -0.37445
O          O       0.47546   0.23133   0.09709  -0.61362
O          O       0.46785   0.21341   0.98715  -0.61318
O          O       0.74166   0.86818   0.08956  -0.68575
O          O       0.69050   0.82649   0.22506  -0.56045
O          O       0.69591   0.17432   0.00369  -0.69059
O          O       0.65453   0.29905   0.92465  -0.49940
O          O       0.51253   0.94462   0.30736  -0.57104
O          O       0.52923   0.07167   0.29960  -0.63405
O          O       0.79901   0.04499   0.15772  -0.66290
O          O       0.72495   0.96555   0.27861  -0.56127
O          O       0.74208   0.02275   0.90736  -0.70091
O          O       0.64499   0.13747   0.86750  -0.56119
O          O       0.61655   0.02246   0.13885  -0.58748
O          O       0.54380   0.04564   0.04948  -0.59088
O          O       0.05881   0.10034   0.92248  -0.37352

