data_crystal

_audit_creation_method 'AiiDA-DDEC plugin'

_cell_length_a        11.20093
_cell_length_b        11.18563
_cell_length_c        19.97752

_cell_angle_alpha     97.83487
_cell_angle_beta     100.48066
_cell_angle_gamma     116.03000

_symmetry_space_group_name_Hall 'P 1'
_symmetry_space_group_name_H-M  'P 1'

loop_
_symmetry_equiv_pos_as_xyz
 'x,y,z'

loop_
_atom_site_label
_atom_site_type_symbol
_atom_site_fract_x
_atom_site_fract_y
_atom_site_fract_z
_atom_site_charge
Zn         Zn      0.25519   0.81859   0.37532   0.88857
Zn         Zn      0.94470   0.87934   0.12334   0.88864
Zn         Zn      0.74482   0.18141   0.62468   0.88861
Zn         Zn      0.05530   0.12066   0.87666   0.88852
Zn         Zn      0.19510   0.94599   0.25007   1.01189
Zn         Zn      0.93228   0.68327   0.25082   0.96816
Zn         Zn      0.80490   0.05402   0.74993   1.01196
Zn         Zn      0.06773   0.31673   0.74918   0.96816
H          H       0.14098   0.68102   0.24254   0.39258
H          H       0.18551   0.25851   0.37815   0.14686
H          H       0.17791   0.04916   0.54431   0.12630
H          H       0.18031   0.43752   0.58310   0.12693
H          H       0.84104   0.40542   0.30573   0.12261
H          H       0.59693   0.21842   0.27399   0.12427
H          H       0.69469   0.06880   0.45194   0.11635
H          H       0.93544   0.25111   0.48427   0.11173
H          H       0.46106   0.58622   0.46256   0.16143
H          H       0.43788   0.65759   0.54137   0.16869
H          H       0.47594   0.75376   0.47670   0.17813
H          H       0.94024   0.90146   0.25575   0.39533
H          H       0.38025   0.80759   0.12186   0.14736
H          H       0.00445   0.63199   0.95483   0.12620
H          H       0.35421   0.59655   0.91698   0.12571
H          H       0.60093   0.53613   0.19457   0.12143
H          H       0.44551   0.32442   0.22643   0.12487
H          H       0.11685   0.24285   0.04826   0.11608
H          H       0.26673   0.45097   0.01604   0.11010
H          H       0.62385  -0.00143   0.03752   0.16028
H          H       0.61572   0.89589   0.95867   0.16773
H          H       0.77699  -0.00103   0.02358   0.17618
H          H       0.85902   0.31898   0.75746   0.39265
H          H       0.81449   0.74149   0.62185   0.14687
H          H       0.82210   0.95084   0.45569   0.12637
H          H       0.81969   0.56248   0.41690   0.12690
H          H       0.15897   0.59459   0.69427   0.12260
H          H       0.40307   0.78159   0.72601   0.12427
H          H       0.30532   0.93120   0.54806   0.11639
H          H       0.06456   0.74890   0.51573   0.11164
H          H       0.53894   0.41379   0.53744   0.16150
H          H       0.56212   0.34241   0.45863   0.16867
H          H       0.52406   0.24624   0.52330   0.17800
H          H       0.05977   0.09854   0.74425   0.39533
H          H       0.61976   0.19241   0.87814   0.14728
H          H       0.99555   0.36802   0.04517   0.12620
H          H       0.64579   0.40346   0.08302   0.12574
H          H       0.39907   0.46387   0.80543   0.12136
H          H       0.55449   0.67558   0.77357   0.12491
H          H       0.88315   0.75715   0.95174   0.11612
H          H       0.73327   0.54904   0.98396   0.11016
H          H       0.37615   0.00143   0.96248   0.16023
H          H       0.38428   0.10412   0.04133   0.16778
H          H       0.22301   0.00103   0.97642   0.17609
C          C       0.04465   0.45569   0.41316   0.22503
C          C       0.27054   0.59304   0.45046   0.35322
C          C       0.18530   0.36104   0.47841   0.15204
C          C       0.18737   0.25673   0.43263  -0.16192
C          C       0.18831   0.14510   0.45691  -0.01458
C          C       0.18315   0.13787   0.52575  -0.09888
C          C       0.18169   0.24366   0.57132  -0.01169
C          C       0.18543   0.35762   0.54796  -0.16609
C          C       0.19398   0.03558   0.40717   0.58506
C          C       0.16098   0.22969   0.64291   0.56640
C          C       0.90565   0.34044   0.39659   0.01416
C          C       0.80854   0.33090   0.33724  -0.10791
C          C       0.67285   0.22723   0.31958  -0.09191
C          C       0.63131   0.13133   0.36047  -0.03295
C          C       0.72737   0.14128   0.41949  -0.08915
C          C       0.86388   0.24465   0.43758  -0.12147
C          C       0.48376   0.02271   0.34138   0.58541
C          C       0.41967   0.65057   0.48466  -0.48111
C          C       0.54297   0.63175   0.08709   0.22203
C          C       0.64253   0.81985   0.04954   0.34777
C          C       0.38242   0.70649   0.02165   0.15104
C          C       0.32397   0.75448   0.06727  -0.16359
C          C       0.18798   0.73071   0.04260  -0.01409
C          C       0.11173   0.65602   0.97363  -0.09959
C          C       0.17179   0.60898   0.92814  -0.01128
C          C       0.30921   0.63654   0.95194  -0.16445
C          C       0.12799   0.78673   0.09179   0.58369
C          C       0.08604   0.51720   0.85604   0.56761
C          C       0.44445   0.50947   0.10372   0.01318
C          C       0.49460   0.47205   0.16305  -0.10780
C          C       0.40851   0.35423   0.18074  -0.09128
C          C       0.27142   0.27152   0.13977  -0.03372
C          C       0.22208   0.30814   0.08072  -0.08719
C          C       0.30732   0.42644   0.06272  -0.12013
C          C       0.18122   0.14317   0.15860   0.58342
C          C       0.66577   0.93474   0.01542  -0.47662
C          C       0.95536   0.54431   0.58684   0.22508
C          C       0.72947   0.40696   0.54954   0.35315
C          C       0.81471   0.63897   0.52159   0.15210
C          C       0.81264   0.74327   0.56737  -0.16194
C          C       0.81169   0.85491   0.54309  -0.01459
C          C       0.81685   0.86213   0.47425  -0.09881
C          C       0.81831   0.75634   0.42868  -0.01178
C          C       0.81457   0.64238   0.45204  -0.16620
C          C       0.80603   0.96442   0.59283   0.58511
C          C       0.83902   0.77031   0.35710   0.56642
C          C       0.09435   0.65957   0.60341   0.01419
C          C       0.19146   0.66911   0.66276  -0.10815
C          C       0.32715   0.77278   0.68042  -0.09174
C          C       0.36869   0.86867   0.63953  -0.03289
C          C       0.27263   0.85872   0.58051  -0.08916
C          C       0.13612   0.75535   0.56242  -0.12142
C          C       0.51624   0.97729   0.65862   0.58532
C          C       0.58033   0.34944   0.51534  -0.48106
C          C       0.45703   0.36826   0.91291   0.22215
C          C       0.35747   0.18016   0.95046   0.34764
C          C       0.61758   0.29352   0.97835   0.15104
C          C       0.67603   0.24552   0.93273  -0.16363
C          C       0.81202   0.26930   0.95740  -0.01402
C          C       0.88827   0.34399   0.02637  -0.09958
C          C       0.82822   0.39102   0.07186  -0.01129
C          C       0.69079   0.36346   0.04806  -0.16443
C          C       0.87201   0.21327   0.90821   0.58370
C          C       0.91396   0.48281   0.14396   0.56753
C          C       0.55555   0.49054   0.89628   0.01307
C          C       0.50540   0.52795   0.83695  -0.10779
C          C       0.59149   0.64577   0.81926  -0.09138
C          C       0.72858   0.72848   0.86023  -0.03366
C          C       0.77793   0.69187   0.91928  -0.08717
C          C       0.69268   0.57356   0.93728  -0.12009
C          C       0.81878   0.85683   0.84140   0.58343
C          C       0.33424   0.06526   0.98458  -0.47657
N          N       0.16830   0.46718   0.45087  -0.10435
N          N       0.07040   0.56882   0.39136  -0.23246
N          N       0.21064   0.65310   0.41438  -0.25517
N          N       0.51635   0.71760   0.04950  -0.09889
N          N       0.67795   0.67904   0.10848  -0.23208
N          N       0.73898   0.79598   0.08531  -0.25357
N          N       0.83170   0.53282   0.54913  -0.10430
N          N       0.92960   0.43119   0.60864  -0.23246
N          N       0.78936   0.34691   0.58563  -0.25529
N          N       0.48365   0.28240   0.95050  -0.09889
N          N       0.32205   0.32096   0.89153  -0.23204
N          N       0.26102   0.20403   0.91469  -0.25364
O          O       0.20145   0.05412   0.34684  -0.54851
O          O       0.19440   0.93389   0.43049  -0.54479
O          O       0.17210   0.34041   0.68075  -0.58167
O          O       0.13049   0.11851   0.65972  -0.52760
O          O       0.40531   0.01684   0.28559  -0.53987
O          O       0.44909   0.94502   0.38433  -0.55852
O          O       0.13834   0.75140   0.27741  -0.86711
O          O       0.20620   0.85606   0.15222  -0.54774
O          O       0.00279   0.76295   0.06776  -0.54308
O          O       0.15841   0.49120   0.81793  -0.58281
O          O       0.95794   0.47029   0.83900  -0.52519
O          O       0.22941   0.12140   0.21511  -0.53937
O          O       0.06123   0.06483   0.11462  -0.55846
O          O       0.97378   0.86042   0.22156  -0.86572
O          O       0.79855   0.94589   0.65316  -0.54860
O          O       0.80560   0.06612   0.56951  -0.54478
O          O       0.82790   0.65959   0.31925  -0.58180
O          O       0.86951   0.88149   0.34028  -0.52749
O          O       0.59469   0.98317   0.71441  -0.53982
O          O       0.55091   0.05498   0.61567  -0.55843
O          O       0.86167   0.24860   0.72259  -0.86718
O          O       0.79380   0.14394   0.84778  -0.54792
O          O      -0.00279   0.23705   0.93224  -0.54291
O          O       0.84160   0.50880   0.18208  -0.58285
O          O       0.04206   0.52972   0.16100  -0.52512
O          O       0.77059   0.87860   0.78489  -0.53944
O          O       0.93878   0.93518   0.88539  -0.55838
O          O       0.02622   0.13959   0.77844  -0.86570

