data_crystal

_audit_creation_method 'AiiDA-DDEC plugin'

_cell_length_a        10.15473
_cell_length_b        19.16957
_cell_length_c        21.04744

_cell_angle_alpha     67.29313
_cell_angle_beta     86.10229
_cell_angle_gamma     83.91334

_symmetry_space_group_name_Hall 'P 1'
_symmetry_space_group_name_H-M  'P 1'

loop_
_symmetry_equiv_pos_as_xyz
 'x,y,z'

loop_
_atom_site_label
_atom_site_type_symbol
_atom_site_fract_x
_atom_site_fract_y
_atom_site_fract_z
_atom_site_charge
Cd         Cd      0.99320   0.16176   0.09487   0.75946
Cd         Cd      0.71984   0.09960   0.00816   0.75875
Cd         Cd      0.35693   0.12745   0.05249   0.74278
H          H       0.44689   0.23861   0.11692   0.09237
H          H       0.52223   0.24249   0.22643   0.12238
H          H       0.53457   0.99758   0.31353   0.13102
H          H       0.46503   0.00459   0.19896   0.10259
H          H       0.76090   0.03332   0.31395   0.13591
H          H       0.97072   0.96464   0.50197   0.12792
H          H       0.80443   0.04124   0.54517   0.10696
H          H       0.39271   0.20214   0.34016   0.13788
H          H       0.65273   0.26244   0.44349   0.11760
H          H       0.69236   0.38362   0.45187   0.12231
H          H       0.66901   0.27928   0.67296   0.13096
H          H       0.57937   0.02050   0.71906   0.13804
H          H       0.52034   0.06328   0.91599   0.07636
H          H       0.46955   0.07782   0.79650   0.10745
H          H       0.83457   0.18498   0.72750   0.12256
H          H       0.86581   0.16909   0.84951   0.09513
H          H       0.23168   0.24490   0.90845   0.10645
H          H       0.17580   0.24947   0.79237   0.12866
H          H       0.23685   0.00458   0.87498   0.12041
H          H       0.29257   0.01146   0.98650   0.08298
H          H       0.01906   0.02969   0.84511   0.13063
H          H       0.84800   0.96648   0.69612   0.13100
H          H       0.97970   0.05622   0.60235   0.10960
H          H       0.33053   0.20895   0.71100   0.13187
H          H       0.05390   0.27754   0.56348   0.11143
H          H       0.95533   0.39709   0.47718   0.11991
H          H       0.99272   0.29877   0.32404   0.12351
H          H       0.19409   0.04501   0.44274   0.13754
H          H       0.21229   0.10981   0.20955   0.08112
H          H       0.26619   0.11123   0.32314   0.10955
H          H       0.86048   0.19721   0.33996   0.12067
H          H       0.82490   0.19248   0.22546   0.08679
H          H       0.70437   0.24292   0.04903   0.07928
H          H       0.55760   0.36062   0.02946   0.13518
H          H       0.86794   0.44509   0.10369   0.12051
H          H       0.00591   0.32355   0.11750   0.09519
H          H       0.63374   0.46656   0.16336   0.11819
H          H       0.65319   0.46858   0.93327   0.13321
H          H       0.36986   0.65175   0.82361   0.12603
H          H       0.31745   0.67966   0.92862   0.10977
H          H       0.01339   0.03183   0.04322   0.07548
H          H       0.16797   0.91678   0.06902   0.12832
H          H       0.86540   0.81424   0.00802   0.12488
H          H       0.71521   0.93084   0.99511   0.08436
H          H       0.28101   0.86126   0.99491   0.11982
H          H       0.23270   0.53025   0.11218   0.11465
H          H       0.01208   0.50008   0.16905   0.11797
H          H       0.89988   0.73695   0.12045   0.13098
H          H       0.39334   0.21407   0.49923   0.34245
H          H       0.52615   0.00970   0.56134   0.36034
H          H       0.40175   0.24142   0.60041   0.35708
H          H       0.27015   0.02815   0.60801   0.35466
H          H       0.51796   0.54361   0.20813   0.36423
H          H       0.48771   0.81247   0.98606   0.36503
C          C       0.46973   0.18678   0.16163   0.09917
C          C       0.51054   0.18841   0.22274  -0.18301
C          C       0.53378   0.12000   0.27974   0.10822
C          C       0.51890   0.05224   0.27108  -0.17281
C          C       0.47898   0.05562   0.20784   0.11243
C          C       0.56083   0.12146   0.34746   0.03036
C          C       0.66828   0.07639   0.38950   0.02535
C          C       0.76621   0.03318   0.36542  -0.20861
C          C       0.87250   0.99400   0.40575   0.14193
C          C       0.88570   0.99560   0.47150  -0.15040
C          C       0.79233   0.03818   0.49541  -0.13065
C          C       0.68165   0.08016   0.45583   0.03511
C          C       0.58868   0.12747   0.47964  -0.14379
C          C       0.48747   0.17146   0.43609   0.27366
C          C       0.47586   0.16832   0.37069  -0.24437
C          C       0.60176   0.13168   0.54798  -0.11615
C          C       0.63556   0.19972   0.55352   0.03219
C          C       0.65602   0.26575   0.49373  -0.10970
C          C       0.67797   0.33345   0.49809  -0.14602
C          C       0.68199   0.33731   0.56355   0.14103
C          C       0.66575   0.27440   0.62337  -0.22695
C          C       0.64416   0.20375   0.62012   0.01747
C          C       0.62706   0.13666   0.68088   0.02827
C          C       0.59230   0.07208   0.67389  -0.23883
C          C       0.57707   0.06991   0.60850   0.25429
C          C       0.58625   0.09048   0.87221   0.08558
C          C       0.55935   0.09829   0.80576  -0.19005
C          C       0.64803   0.13303   0.75109   0.09998
C          C       0.76018   0.15950   0.76712  -0.17456
C          C       0.77948   0.14967   0.83512   0.09538
C          C       0.23245   0.19340   0.89809   0.12049
C          C       0.20160   0.19530   0.83391  -0.17468
C          C       0.20381   0.12713   0.82349   0.10588
C          C       0.23302   0.05914   0.88003  -0.18781
C          C       0.26383   0.06241   0.94213   0.09323
C          C       0.18535   0.12871   0.75382   0.04173
C          C       0.09602   0.08350   0.73993   0.02855
C          C       0.01580   0.03380   0.79233  -0.21272
C          C       0.93037   0.99218   0.77600   0.14687
C          C       0.91742  -0.00074   0.70740  -0.15081
C          C       0.99112   0.04896   0.65556  -0.11827
C          C       0.08339   0.09156   0.66969   0.03107
C          C       0.16155   0.14147   0.61498  -0.09707
C          C       0.25055   0.18162   0.63179   0.25370
C          C       0.26008   0.17629   0.70003  -0.27131
C          C       0.14453   0.14972   0.54288  -0.11275
C          C       0.08177   0.21782   0.49406   0.05840
C          C       0.04098   0.28170   0.51126  -0.11018
C          C       0.98612   0.34868   0.46330  -0.15016
C          C       0.96945   0.35388   0.39555   0.14309
C          C       0.00522   0.29293   0.37669  -0.21388
C          C       0.05993   0.22310   0.42552   0.03881
C          C       0.09758   0.15822   0.40813   0.03771
C          C       0.16281   0.09415   0.45565  -0.23307
C          C       0.18739   0.09010   0.52220   0.25887
C          C       0.13851   0.12995   0.23988   0.09510
C          C       0.16725   0.13071   0.30325  -0.18671
C          C       0.06892   0.15735   0.34049   0.11039
C          C       0.94270   0.17975   0.31198  -0.18258
C          C       0.92196   0.17654   0.24850   0.08647
C          C       0.73792   0.28883   0.06040   0.09662
C          C       0.65570   0.35496   0.04969  -0.17922
C          C       0.69993   0.41295   0.06578   0.11562
C          C       0.82805   0.40133   0.09147  -0.19181
C          C       0.90485   0.33394   0.09951   0.08736
C          C       0.61197   0.48220   0.05817   0.04048
C          C       0.58594   0.50132   0.11514  -0.28631
C          C       0.49401   0.56289   0.11293   0.25661
C          C       0.42629   0.60641   0.05329  -0.06751
C          C       0.45484   0.58979   0.99294   0.04194
C          C       0.54922   0.52759   0.99464   0.03621
C          C       0.57933   0.51389   0.93333  -0.21070
C          C       0.51553   0.55849   0.87339   0.14733
C          C       0.41949   0.61827   0.87142  -0.15622
C          C       0.39065   0.63337   0.93006  -0.11508
C          C       0.98296   0.98224   0.03700   0.10131
C          C       0.07076   0.91791   0.04968  -0.17912
C          C       0.03172   0.85513   0.03930   0.11278
C          C       0.90110   0.86028   0.01835  -0.19569
C          C       0.81797   0.92573   0.00931   0.08492
C          C       0.32422   0.66813   0.05302  -0.05938
C          C       0.35386   0.74335   0.02490   0.25833
C          C       0.25596   0.80281   0.02091  -0.27292
C          C       0.12829   0.78901   0.04755   0.04123
C          C       0.09593   0.71194   0.08134   0.03812
C          C       0.19427   0.65178   0.08186   0.04217
C          C       0.15952   0.57565   0.11300  -0.10594
C          C       0.03707   0.55849   0.14457  -0.16456
C          C       0.94445   0.61800   0.14671   0.14535
C          C       0.97223   0.69285   0.11634  -0.21253
N          N       0.45256   0.12168   0.15453  -0.22787
N          N       0.69478   0.11515   0.88717  -0.22265
N          N       0.26610   0.12811   0.95076  -0.22350
N          N       0.01834   0.15319   0.21224  -0.22881
N          N       0.86057   0.27817   0.08487  -0.23374
N          N       0.85805   0.98646   0.01743  -0.22894
Cl         Cl      0.53686   0.21595   0.97687  -0.49451
Cl         Cl      0.92874   0.18092   0.96733  -0.51129
Cl         Cl      0.83113   0.93175   0.83998  -0.07548
Cl         Cl      0.78312   0.08448   0.13386  -0.50440
Cl         Cl      0.99584   0.94463   0.37418  -0.07197
Cl         Cl      0.17427   0.04034   0.12737  -0.49520
Cl         Cl      0.71087   0.42318   0.56814  -0.08514
Cl         Cl      0.52096   0.00684   0.05121  -0.53029
Cl         Cl      0.90127   0.43919   0.33482  -0.11251
Cl         Cl      0.19661   0.24682   0.05257  -0.51988
Cl         Cl      0.55282   0.54105   0.79844  -0.10596
Cl         Cl      0.79116   0.59659   0.18943  -0.09653
O          O       0.39418   0.21961   0.45073  -0.43229
O          O       0.53940   0.00327   0.60901  -0.42571
O          O       0.32842   0.22881   0.58010  -0.42926
O          O       0.25345   0.02387   0.56450  -0.43768
O          O       0.46601   0.57983   0.17043  -0.43346
O          O       0.48052   0.75845  -0.00041  -0.43335

