data_crystal

_audit_creation_method 'AiiDA-DDEC plugin'

_cell_length_a        14.63961
_cell_length_b        15.62491
_cell_length_c        15.32872

_cell_angle_alpha     112.34057
_cell_angle_beta     104.59446
_cell_angle_gamma     107.02980

_symmetry_space_group_name_Hall 'P 1'
_symmetry_space_group_name_H-M  'P 1'

loop_
_symmetry_equiv_pos_as_xyz
 'x,y,z'

loop_
_atom_site_label
_atom_site_type_symbol
_atom_site_fract_x
_atom_site_fract_y
_atom_site_fract_z
_atom_site_charge
Zn         Zn      0.03659   0.29942   0.92464   0.77218
Zn         Zn      0.42765   0.25395   0.87835   0.77714
Zn         Zn      0.96341   0.70058   0.07535   0.77227
Zn         Zn      0.57235   0.74605   0.12165   0.77709
H          H       0.31360   0.64000   0.27405   0.12298
H          H       0.43179   0.69161   0.45381   0.10920
H          H       0.97746   0.74749   0.51075   0.11332
H          H       0.14189   0.34027   0.22568   0.12335
H          H       0.93065   0.94090   0.91887   0.12156
H          H       0.25903   0.38774   0.40045   0.11094
H          H       0.69581   0.47100   0.16888   0.11780
H          H       0.09651   0.92621   0.55918   0.12288
H          H       0.83921   0.55681   0.34447   0.11089
H          H       0.28985   0.19115   0.98720   0.33763
H          H       0.15341   0.16843   0.96220   0.33286
H          H       0.78460   0.76997   0.83587   0.10714
H          H       0.64548   0.65890   0.80166   0.12011
H          H       0.20506   0.76768   0.76799   0.10814
H          H       0.54253   0.22115   0.21428   0.12281
H          H       0.68708   0.30297   0.38650   0.10907
H          H       0.74640   0.02497   0.72933   0.12087
H          H       0.59926   0.58558   0.88073   0.12042
H          H       0.59765   0.84958   0.64206   0.11096
H          H       0.81351   0.36748   0.51793   0.11618
H          H       0.38381   0.32565   0.57856   0.12716
H          H       0.87547   0.29345   0.58839   0.12233
H          H       0.58559   0.46384   0.94895   0.10403
H          H       0.06215   0.59776   0.85451   0.13582
H          H       0.08457   0.51417   0.96268   0.11011
H          H       0.08991   0.64402   0.74922   0.12323
H          H       0.35277   0.43360   0.54313   0.12209
H          H       0.32023   0.94441   0.81551   0.12898
H          H       0.89649   0.22393   0.70952   0.10635
H          H       0.36850   0.21633   0.66268   0.11140
H          H       0.68640   0.36000   0.72594   0.12298
H          H       0.56821   0.30839   0.54619   0.10927
H          H       0.02254   0.25251   0.48925   0.11329
H          H       0.85811   0.65973   0.77432   0.12330
H          H       0.06935   0.05910   0.08112   0.12159
H          H       0.74097   0.61226   0.59955   0.11092
H          H       0.30419   0.52900   0.83112   0.11779
H          H       0.90349   0.07379   0.44082   0.12288
H          H       0.16079   0.44319   0.65553   0.11091
H          H       0.71015   0.80885   0.01280   0.33760
H          H       0.84659   0.83157   0.03780   0.33284
H          H       0.21540   0.23003   0.16412   0.10712
H          H       0.35452   0.34109   0.19834   0.12024
H          H       0.79494   0.23232   0.23201   0.10816
H          H       0.45747   0.77885   0.78571   0.12278
H          H       0.31292   0.69703   0.61349   0.10907
H          H       0.25360   0.97503   0.27067   0.12090
H          H       0.40074   0.41442   0.11927   0.12046
H          H       0.40235   0.15041   0.35794   0.11095
H          H       0.18649   0.63252   0.48207   0.11616
H          H       0.61619   0.67434   0.42144   0.12708
H          H       0.12453   0.70655   0.41161   0.12225
H          H       0.41441   0.53616   0.05105   0.10410
H          H       0.93785   0.40224   0.14548   0.13591
H          H       0.91543   0.48583   0.03731   0.11021
H          H       0.91009   0.35598   0.25078   0.12326
H          H       0.64723   0.56639   0.45686   0.12209
H          H       0.67977   0.05559   0.18449   0.12903
H          H       0.10351   0.77607   0.29048   0.10626
H          H       0.63150   0.78366   0.33732   0.11133
C          C       0.30245   0.58676   0.30424  -0.09388
C          C       0.36770   0.61516   0.40340  -0.11979
C          C       0.22246   0.48636   0.23862  -0.01702
C          C       0.05271   0.79100   0.57710  -0.11873
C          C       0.20606   0.41674   0.27601  -0.10604
C          C       0.85762   0.92132   0.85883  -0.08740
C          C       0.27211   0.44460   0.37496  -0.10893
C          C       0.95387   0.49914   0.64254   0.10181
C          C       0.69466   0.43495   0.21716  -0.09781
C          C       0.11873   0.88984   0.60364  -0.10353
C          C       0.77456   0.48293   0.31503  -0.11056
C          C       0.77387   0.43692   0.37848   0.03211
C          C       0.77436   0.82483   0.81187  -0.11679
C          C       0.61025   0.34051   0.18087  -0.00967
C          C       0.35598   0.54372   0.43958   0.03320
C          C       0.08129   0.74538   0.63662   0.03156
C          C       0.49161   0.46675   0.72286   0.11113
C          C       0.67965   0.79762   0.73288   0.03402
C          C       0.58419   0.63207   0.72752  -0.16218
C          C       0.17915   0.80153   0.72224  -0.12792
C          C       0.49889   0.53552   0.67757   0.09628
C          C       0.60884   0.29374   0.24291  -0.10150
C          C       0.69012   0.34065   0.33987  -0.12312
C          C       0.59083   0.69526   0.68144   0.21198
C          C       0.75335   0.96776   0.75099  -0.09552
C          C       0.96692   0.45311   0.71047   0.10989
C          C       0.85939   0.49104   0.48267   0.20694
C          C       0.54948   0.50416   0.82823  -0.16162
C          C       0.67078   0.87068   0.70285  -0.11813
C          C       0.21517   0.94603   0.69036  -0.01998
C          C       0.16051   0.45321   0.12777   0.53901
C          C       0.87032   0.44465   0.54497  -0.19556
C          C       0.84768   0.99395   0.82931  -0.02049
C          C       0.42790   0.36062   0.66149  -0.16200
C          C       0.91979   0.34619   0.67097  -0.16967
C          C       0.43349   0.57262   0.54060   0.20896
C          C       0.54145   0.43685   0.86756   0.10652
C          C       0.02610   0.51448   0.81765  -0.15244
C          C       0.03646   0.46924   0.87972   0.09878
C          C       0.02374   0.59918   0.67428  -0.19651
C          C       0.52062   0.29171   0.07790   0.56014
C          C       0.42195   0.50636   0.58294  -0.18853
C          C       0.93767   0.09808   0.88098   0.56608
C          C       0.00858   0.64098   0.60806   0.21116
C          C       0.24514   0.90054   0.74883  -0.09493
C          C       0.93201   0.30634   0.73780   0.08870
C          C       0.42145   0.29810   0.70635   0.08775
C          C       0.23237   0.26308   0.91733   0.48843
C          C       0.28302   0.05469   0.72102   0.54881
C          C       0.69755   0.41324   0.69575  -0.09377
C          C       0.63230   0.38483   0.59660  -0.11979
C          C       0.77754   0.51364   0.76138  -0.01702
C          C       0.94729   0.20900   0.42290  -0.11876
C          C       0.79394   0.58325   0.72399  -0.10610
C          C       0.14238   0.07868   0.14117  -0.08740
C          C       0.72789   0.55540   0.62504  -0.10887
C          C       0.04613   0.50086   0.35746   0.10181
C          C       0.30534   0.56505   0.78284  -0.09783
C          C       0.88127   0.11016   0.39636  -0.10349
C          C       0.22544   0.51706   0.68497  -0.11051
C          C       0.22613   0.56307   0.62152   0.03206
C          C       0.22564   0.17517   0.18813  -0.11690
C          C       0.38975   0.65949   0.81912  -0.00967
C          C       0.64402   0.45628   0.56042   0.03316
C          C       0.91871   0.25462   0.36338   0.03161
C          C       0.50839   0.53325   0.27713   0.11117
C          C       0.32035   0.20237   0.26712   0.03418
C          C       0.41581   0.36792   0.27248  -0.16231
C          C       0.82085   0.19847   0.27776  -0.12797
C          C       0.50111   0.46448   0.32243   0.09634
C          C       0.39116   0.70626   0.75708  -0.10162
C          C       0.30988   0.65935   0.66013  -0.12306
C          C       0.40917   0.30474   0.31856   0.21185
C          C       0.24665   0.03224   0.24900  -0.09554
C          C       0.03308   0.54689   0.28952   0.10991
C          C       0.14061   0.50895   0.51733   0.20692
C          C       0.45052   0.49584   0.17177  -0.16159
C          C       0.32922   0.12931   0.29715  -0.11815
C          C       0.78483   0.05396   0.30964  -0.02000
C          C       0.83949   0.54678   0.87223   0.53891
C          C       0.12968   0.55535   0.45503  -0.19561
C          C       0.15232   0.00605   0.17069  -0.02040
C          C       0.57210   0.63938   0.33851  -0.16199
C          C       0.08021   0.65381   0.32903  -0.16962
C          C       0.56651   0.42738   0.45939   0.20899
C          C       0.45855   0.56314   0.13244   0.10647
C          C       0.97390   0.48552   0.18235  -0.15245
C          C       0.96354   0.53076   0.12028   0.09875
C          C       0.97626   0.40082   0.32572  -0.19648
C          C       0.47938   0.70828   0.92210   0.56020
C          C       0.57805   0.49364   0.41706  -0.18863
C          C       0.06233   0.90192   0.11902   0.56602
C          C       0.99142   0.35902   0.39194   0.21116
C          C       0.75486   0.09946   0.25117  -0.09491
C          C       0.06799   0.69366   0.26220   0.08862
C          C       0.57855   0.70190   0.29365   0.08771
C          C       0.76763   0.73692   0.08266   0.48839
C          C       0.71698   0.94531   0.27897   0.54879
N          N       0.98963   0.36658   0.84090  -0.22453
N          N       0.47742   0.33531   0.80806  -0.22918
N          N       0.92756   0.58740   0.51456  -0.33129
N          N       0.22483   0.20257   0.96037  -0.57830
N          N       0.51703   0.66509   0.58935  -0.34060
N          N       0.20061   0.35859   0.85235  -0.05546
N          N       0.29075   0.35895   0.85315  -0.05853
N          N       0.31335   0.30040   0.89381  -0.32314
N          N       0.16165   0.29902   0.89152  -0.31215
N          N       0.01037   0.63342   0.15910  -0.22453
N          N       0.52258   0.66468   0.19194  -0.22915
N          N       0.07244   0.41260   0.48544  -0.33125
N          N       0.77517   0.79743   0.03963  -0.57830
N          N       0.48297   0.33491   0.41064  -0.34057
N          N       0.79939   0.64141   0.14765  -0.05528
N          N       0.70925   0.64105   0.14685  -0.05862
N          N       0.68665   0.69960   0.10619  -0.32310
N          N       0.83835   0.70098   0.10848  -0.31219
O          O       0.54490   0.31651   0.01230  -0.53887
O          O       0.91843   0.16248   0.85396  -0.55418
O          O       0.02368   0.11701   0.94545  -0.54417
O          O       0.18673   0.51193   0.09253  -0.52459
O          O       0.43109   0.23365   0.06230  -0.55277
O          O       0.08381   0.36083   0.07514  -0.55911
O          O       0.36391   0.10451   0.80977  -0.54975
O          O       0.25900   0.09099   0.66354  -0.51629
O          O       0.45510   0.68349   0.98770  -0.53891
O          O       0.08157   0.83752   0.14604  -0.55413
O          O       0.97632   0.88299   0.05455  -0.54417
O          O       0.81327   0.48807   0.90747  -0.52452
O          O       0.56891   0.76634   0.93770  -0.55281
O          O       0.91619   0.63917   0.92486  -0.55914
O          O       0.63609   0.89549   0.19023  -0.54971
O          O       0.74100   0.90900   0.33646  -0.51631

