data_crystal

_audit_creation_method 'AiiDA-DDEC plugin'

_cell_length_a        10.25495
_cell_length_b        10.00272
_cell_length_c        23.14576

_cell_angle_alpha     90.00000
_cell_angle_beta     90.00000
_cell_angle_gamma     90.00000

_symmetry_space_group_name_Hall 'P 1'
_symmetry_space_group_name_H-M  'P 1'

loop_
_symmetry_equiv_pos_as_xyz
 'x,y,z'

loop_
_atom_site_label
_atom_site_type_symbol
_atom_site_fract_x
_atom_site_fract_y
_atom_site_fract_z
_atom_site_charge
Sn         Sn      0.32612   0.79897   0.02674   1.23291
Sn         Sn      0.54961   0.67246   0.23475   1.24352
Sn         Sn      0.45039   0.17246   0.26525   1.24352
Sn         Sn      0.67388   0.29898   0.47326   1.23307
Sn         Sn      0.17388   0.20102   0.52674   1.23310
Sn         Sn      0.95039   0.32754   0.73474   1.24350
Sn         Sn      0.04961   0.82754   0.76525   1.24343
Sn         Sn      0.82612   0.70102   0.97326   1.23296
H          H       0.61214   0.10988   0.12517   0.09787
H          H       0.79886   0.88767   0.08575   0.12723
H          H       0.76080   0.03316   0.04654   0.13330
H          H       0.87843   0.92041   0.20058   0.10437
H          H       0.07488   0.03036   0.24112   0.09420
H          H       0.11529   0.27214   0.22271   0.10099
H          H       0.95919   0.40220   0.16205   0.10274
H          H       0.76126   0.29248   0.12328   0.10724
H          H       0.38785   0.60988   0.37483   0.09780
H          H       0.20114   0.38767   0.41425   0.12727
H          H       0.23919   0.53316   0.45346   0.13330
H          H       0.12156   0.42041   0.29942   0.10442
H          H       0.92512   0.53036   0.25888   0.09427
H          H       0.88471   0.77214   0.27729   0.10100
H          H       0.04080   0.90220   0.33795   0.10276
H          H       0.23874   0.79248   0.37672   0.10710
H          H       0.88785   0.89012   0.62517   0.09781
H          H       0.70113   0.11233   0.58575   0.12728
H          H       0.73919   0.96683   0.54653   0.13333
H          H       0.62156   0.07959   0.70058   0.10433
H          H       0.42512   0.96964   0.74112   0.09425
H          H       0.38471   0.72785   0.72271   0.10098
H          H       0.54080   0.59780   0.66205   0.10287
H          H       0.73874   0.70752   0.62328   0.10724
H          H       0.11214   0.39012   0.87483   0.09787
H          H       0.29886   0.61233   0.91424   0.12721
H          H       0.26081   0.46684   0.95346   0.13330
H          H       0.37844   0.57959   0.79942   0.10438
H          H       0.57488   0.46964   0.75888   0.09424
H          H       0.61529   0.22785   0.77729   0.10099
H          H       0.45920   0.09780   0.83795   0.10272
H          H       0.26126   0.20752   0.87672   0.10712
H          H       0.11342   0.94853   0.05431   0.17056
H          H       0.14840   0.83843   0.11272   0.17383
H          H       0.24286   0.98704   0.10350   0.17523
H          H       0.28107   0.84969   0.91284   0.17191
H          H       0.37522   0.98355   0.94334   0.17366
H          H       0.45308   0.83009   0.92465   0.17802
H          H       0.46597   0.61814   0.08922   0.17697
H          H       0.31264   0.54571   0.06872   0.17202
H          H       0.44373   0.55543   0.01780   0.16706
H          H       0.31878   0.62423   0.18177   0.17017
H          H       0.29249   0.73873   0.23973   0.16799
H          H       0.36057   0.79757   0.17319   0.17761
H          H       0.53730   0.76724   0.34521   0.17037
H          H       0.68541   0.67648   0.33566   0.17328
H          H       0.67097   0.84434   0.30901   0.17225
H          H       0.70400   0.54946   0.15492   0.16861
H          H       0.73678   0.48090   0.22464   0.16568
H          H       0.59459   0.43057   0.18692   0.16463
H          H       0.68122   0.12423   0.31823   0.17009
H          H       0.70751   0.23873   0.26027   0.16795
H          H       0.63942   0.29757   0.32681   0.17759
H          H       0.46270   0.26724   0.15479   0.17035
H          H       0.31458   0.17648   0.16434   0.17339
H          H       0.32902   0.34434   0.19099   0.17234
H          H       0.29600   0.04946   0.34508   0.16864
H          H       0.26321   0.98090   0.27536   0.16576
H          H       0.40541   0.93057   0.31308   0.16456
H          H       0.88657   0.44853   0.44569   0.17050
H          H       0.85160   0.33843   0.38728   0.17372
H          H       0.75714   0.48705   0.39650   0.17536
H          H       0.71892   0.34969   0.58716   0.17164
H          H       0.62477   0.48355   0.55666   0.17367
H          H       0.54691   0.33009   0.57535   0.17801
H          H       0.53403   0.11814   0.41078   0.17712
H          H       0.68736   0.04572   0.43128   0.17199
H          H       0.55627   0.05543   0.48220   0.16708
H          H       0.38658   0.05147   0.55431   0.17052
H          H       0.35160   0.16157   0.61272   0.17364
H          H       0.25714   0.01295   0.60350   0.17526
H          H       0.21892   0.15031   0.41284   0.17179
H          H       0.12477   0.01645   0.44334   0.17369
H          H       0.04691   0.16991   0.42465   0.17804
H          H       0.03403   0.38186   0.58922   0.17698
H          H       0.18736   0.45428   0.56872   0.17198
H          H       0.05627   0.44457   0.51780   0.16713
H          H       0.18122   0.37577   0.68177   0.17018
H          H       0.20751   0.26127   0.73973   0.16791
H          H       0.13943   0.20243   0.67319   0.17763
H          H       0.96269   0.23276   0.84521   0.17030
H          H       0.81458   0.32352   0.83566   0.17335
H          H       0.82902   0.15566   0.80900   0.17246
H          H       0.79600   0.45054   0.65492   0.16884
H          H       0.76321   0.51910   0.72464   0.16578
H          H       0.90541   0.56943   0.68692   0.16456
H          H       0.81878   0.87576   0.81823   0.17010
H          H       0.79249   0.76127   0.76027   0.16816
H          H       0.86057   0.70243   0.82681   0.17762
H          H       0.03730   0.73275   0.65479   0.17039
H          H       0.18542   0.82352   0.66433   0.17332
H          H       0.17098   0.65566   0.69099   0.17225
H          H       0.20400   0.95054   0.84507   0.16858
H          H       0.23679   0.01910   0.77536   0.16578
H          H       0.09459   0.06943   0.81308   0.16455
H          H       0.61342   0.55147   0.94569   0.17056
H          H       0.64840   0.66157   0.88728   0.17394
H          H       0.74286   0.51295   0.89649   0.17534
H          H       0.78107   0.65031   0.08716   0.17183
H          H       0.87522   0.51645   0.05666   0.17368
H          H       0.95308   0.66991   0.07535   0.17783
H          H       0.96596   0.88186   0.91078   0.17706
H          H       0.81263   0.95428   0.93128   0.17208
H          H       0.94373   0.94457   0.98220   0.16696
C          C       0.62238   0.93766   0.17762   0.59702
C          C       0.68546   0.03280   0.13416  -0.13847
C          C       0.72117   0.96079   0.07776  -0.32691
C          C       0.60842   0.88803   0.04925   0.62508
C          C       0.80560   0.09930   0.15975   0.09689
C          C       0.89566   0.02619   0.19263  -0.14609
C          C       0.00647   0.08816   0.21528  -0.08122
C          C       0.02942   0.22382   0.20478  -0.10149
C          C       0.94170   0.29687   0.17102  -0.09061
C          C       0.83033   0.23473   0.14882  -0.15202
C          C       0.37761   0.43765   0.32238   0.59691
C          C       0.31454   0.53280   0.36583  -0.13848
C          C       0.27883   0.46080   0.42224  -0.32685
C          C       0.39158   0.38804   0.45075   0.62526
C          C       0.19439   0.59930   0.34025   0.09691
C          C       0.10434   0.52619   0.30736  -0.14612
C          C       0.99353   0.58816   0.28472  -0.08113
C          C       0.97057   0.72382   0.29521  -0.10140
C          C       0.05830   0.79686   0.32898  -0.09065
C          C       0.16967   0.73473   0.35118  -0.15204
C          C       0.87761   0.06234   0.67762   0.59699
C          C       0.81454   0.96720   0.63416  -0.13853
C          C       0.77882   0.03920   0.57776  -0.32669
C          C       0.89158   0.11196   0.54925   0.62520
C          C       0.69439   0.90069   0.65975   0.09696
C          C       0.60434   0.97381   0.69263  -0.14618
C          C       0.49352   0.91184   0.71528  -0.08118
C          C       0.47058   0.77617   0.70478  -0.10136
C          C       0.55829   0.70313   0.67102  -0.09056
C          C       0.66967   0.76527   0.64882  -0.15220
C          C       0.12238   0.56234   0.82237   0.59678
C          C       0.18546   0.46720   0.86583  -0.13848
C          C       0.22117   0.53920   0.92224  -0.32689
C          C       0.10842   0.61196   0.95075   0.62511
C          C       0.30560   0.40070   0.84025   0.09677
C          C       0.39566   0.47381   0.80736  -0.14602
C          C       0.50647   0.41184   0.78472  -0.08113
C          C       0.52942   0.27617   0.79521  -0.10150
C          C       0.44170   0.20314   0.82898  -0.09052
C          C       0.33033   0.26527   0.85117  -0.15196
C          C       0.19150   0.90652   0.08098  -0.74577
C          C       0.36303   0.87483   0.94104  -0.75590
C          C       0.39568   0.60554   0.05405  -0.75229
C          C       0.35621   0.71362   0.20340  -0.74768
C          C       0.61964   0.74984   0.31607  -0.75511
C          C       0.65999   0.51462   0.19521  -0.74860
C          C       0.64378   0.21362   0.29660  -0.74764
C          C       0.38036   0.24984   0.18393  -0.75521
C          C       0.34001   0.01462   0.30479  -0.74865
C          C       0.80849   0.40652   0.41902  -0.74577
C          C       0.63696   0.37483   0.55895  -0.75572
C          C       0.60432   0.10554   0.44595  -0.75242
C          C       0.30850   0.09348   0.58097  -0.74563
C          C       0.13697   0.12517   0.44105  -0.75585
C          C       0.10432   0.39446   0.55405  -0.75238
C          C       0.14379   0.28638   0.70339  -0.74769
C          C       0.88036   0.25016   0.81607  -0.75533
C          C       0.84001   0.48538   0.69521  -0.74887
C          C       0.85621   0.78638   0.79660  -0.74779
C          C       0.11964   0.75016   0.68392  -0.75505
C          C       0.15999   0.98538   0.80479  -0.74862
C          C       0.69150   0.59348   0.91902  -0.74595
C          C       0.86303   0.62517   0.05895  -0.75574
C          C       0.89568   0.89445   0.94595  -0.75238
O          O       0.54210   0.98006   0.21462  -0.56449
O          O       0.65650   0.81381   0.17469  -0.54253
O          O       0.49320   0.91391   0.06802  -0.53561
O          O       0.62999   0.80642   0.00844  -0.56842
O          O       0.45790   0.48006   0.28538  -0.56448
O          O       0.34350   0.31381   0.32531  -0.54244
O          O       0.50679   0.41391   0.43198  -0.53579
O          O       0.37000   0.30642   0.49156  -0.56854
O          O       0.95790   0.01994   0.71462  -0.56473
O          O       0.84349   0.18619   0.67469  -0.54236
O          O       0.00680   0.08609   0.56802  -0.53587
O          O       0.87000   0.19358   0.50843  -0.56849
O          O       0.04210   0.51994   0.78538  -0.56422
O          O       0.15650   0.68619   0.82531  -0.54253
O          O       0.99320   0.58609   0.93198  -0.53558
O          O       0.13000   0.69358   0.99156  -0.56858

