data_crystal

_audit_creation_method 'AiiDA-DDEC plugin'

_cell_length_a        13.49254
_cell_length_b        16.02319
_cell_length_c        17.55955

_cell_angle_alpha     66.38768
_cell_angle_beta     67.41527
_cell_angle_gamma     64.93803

_symmetry_space_group_name_Hall 'P 1'
_symmetry_space_group_name_H-M  'P 1'

loop_
_symmetry_equiv_pos_as_xyz
 'x,y,z'

loop_
_atom_site_label
_atom_site_type_symbol
_atom_site_fract_x
_atom_site_fract_y
_atom_site_fract_z
_atom_site_charge
Mn         Mn      0.42339   0.46952   0.61244   1.03593
Mn         Mn      0.50615   0.02253   0.89071   1.03094
Mn         Mn      0.57635   0.52357   0.39456   1.03146
Mn         Mn      0.51056   0.96381   0.09779   1.06777
Mn         Mn      0.46022   0.24871   0.74989   1.11599
Mn         Mn      0.53907   0.74912   0.25048   1.10411
H          H       0.06285   0.59907   0.73822   0.11375
H          H       0.85969   0.62868   0.82158   0.11176
H          H       0.91992   0.32360   0.92405   0.11338
H          H       0.12477   0.29513   0.84545   0.12206
H          H       0.75089   0.43395   0.98642   0.08927
H          H       0.79088   0.52168   0.04910   0.10992
H          H       0.71845   0.66835   0.09506   0.11003
H          H       0.52157   0.81716   0.90686   0.10866
H          H       0.59539   0.66963   0.86128   0.10551
H          H       0.60829   0.38852   0.99049   0.10704
H          H       0.52348   0.35029   0.91042   0.09998
H          H       0.66610   0.53340   0.67451   0.11808
H          H       0.76198   0.56389   0.75266   0.10738
H          H       0.39811   0.89851   0.76361   0.11766
H          H       0.30880   0.87295   0.67734   0.11070
H          H       0.16980   0.17891   0.57667   0.11526
H          H       0.26528   0.20387   0.65909   0.12402
H          H       0.16864   0.07112   0.51360   0.09549
H          H       0.36169   0.97949   0.45152   0.11728
H          H       0.47907   0.82967   0.40731   0.11786
H          H       0.23900   0.68858   0.59533   0.12013
H          H       0.11998   0.83959   0.63823   0.11189
H          H       0.98293   0.11444   0.51148   0.10849
H          H       0.78036   0.14724   0.59309   0.09906
H          H       0.87723   0.96439   0.82708   0.12040
H          H       0.08067   0.93940   0.74731   0.10849
H          H       0.92947   0.41249   0.26219   0.11389
H          H       0.13303   0.38232   0.18142   0.10970
H          H       0.07280   0.68734   0.07532   0.11528
H          H       0.86781   0.71637   0.15191   0.12373
H          H       0.24256   0.57633   0.01432   0.09524
H          H       0.20428   0.48204   0.95364   0.11845
H          H       0.28659   0.33226   0.90908   0.11489
H          H       0.47345   0.19467   0.10174   0.11883
H          H       0.39395   0.34646   0.14414   0.10958
H          H       0.38497   0.62285   0.00946   0.10865
H          H       0.47482   0.65939   0.08636   0.10501
H          H       0.33454   0.47646   0.32440   0.11788
H          H       0.23412   0.44741   0.24915   0.10721
H          H       0.60408   0.08992   0.22491   0.11370
H          H       0.69814   0.12230   0.30252   0.11053
H          H       0.83372   0.81804   0.41595   0.11429
H          H       0.73212   0.78665   0.34336   0.12438
H          H       0.83259   0.92673   0.47366   0.09345
H          H       0.64086   0.01462   0.53893   0.11891
H          H       0.52774   0.15783   0.59343   0.11383
H          H       0.76222   0.30539   0.40597   0.11619
H          H       0.87802   0.16018   0.35417   0.11133
H          H       0.01170   0.88151   0.48441   0.10736
H          H       0.21659   0.84217   0.41293   0.09915
H          H       0.14343   0.02742   0.17107   0.11838
H          H       0.93718   0.05799   0.24085   0.10784
C          C       0.22742   0.42617   0.74050   0.59058
C          C       0.10571   0.44540   0.78724  -0.06129
C          C       0.03065   0.53948   0.77961  -0.09282
C          C       0.91716   0.55560   0.82548  -0.14979
C          C       0.87635   0.47807   0.87772   0.10137
C          C       0.95156   0.38400   0.88425  -0.15197
C          C       0.06539   0.36759   0.84028  -0.08669
C          C       0.75183   0.49277   0.92602  -0.10660
C          C       0.69769   0.58506   0.95219   0.07251
C          C       0.73158   0.58633   0.01829  -0.14827
C          C       0.69209   0.66797   0.04414  -0.10131
C          C       0.61422   0.75308   0.00514  -0.05746
C          C       0.58126   0.75288   0.93749  -0.11894
C          C       0.62273   0.66951   0.91219  -0.15505
C          C       0.56968   0.83187   0.03917   0.43715
C          C       0.69105   0.47892   0.87708   0.09957
C          C       0.62220   0.41973   0.92112  -0.15291
C          C       0.57393   0.39839   0.87679  -0.08717
C          C       0.59002   0.43903   0.78770  -0.05400
C          C       0.65476   0.50170   0.74357  -0.08962
C          C       0.70645   0.51984   0.78782  -0.14940
C          C       0.53765   0.41613   0.74113   0.60390
C          C       0.39090   0.06836   0.76704   0.59014
C          C       0.33698   0.05249   0.71668  -0.05901
C          C       0.34849   0.95929   0.72210  -0.09044
C          C       0.29754   0.94542   0.67444  -0.15080
C          C       0.23231   0.02437   0.62213   0.09848
C          C       0.22089   0.11755   0.61696  -0.15222
C          C       0.27337   0.13184   0.66309  -0.08208
C          C       0.16906   0.01195   0.57374  -0.11198
C          C       0.23281   0.91942   0.54755   0.10776
C          C       0.33454   0.91593   0.48247  -0.14622
C          C       0.40095   0.83245   0.45812  -0.07287
C          C       0.36642   0.75016   0.49861  -0.06306
C          C       0.26533   0.75256   0.56424  -0.08092
C          C       0.19891   0.83711   0.58806  -0.15348
C          C       0.43521   0.66364   0.46937   0.59502
C          C       0.04582   0.02493   0.62388   0.09566
C          C       0.96026   0.08260   0.58082  -0.15255
C          C       0.84663   0.10056   0.62603  -0.08344
C          C       0.81642   0.05812   0.71498  -0.04989
C          C       0.90146   0.99748   0.75813  -0.08842
C          C       0.01503   0.98274   0.71302  -0.14831
C          C       0.69477   0.07798   0.76243   0.60329
C          C       0.76438   0.58347   0.25693   0.58737
C          C       0.88625   0.56607   0.21166  -0.05955
C          C       0.96183   0.47196   0.22079  -0.09037
C          C       0.07573   0.45561   0.17618  -0.15232
C          C       0.11664   0.53297   0.12332   0.09929
C          C       0.04112   0.62708   0.11559  -0.15080
C          C       0.92693   0.64372   0.15850  -0.08489
C          C       0.24115   0.51834   0.07527  -0.10953
C          C       0.29545   0.42475   0.05069   0.10940
C          C       0.26473   0.41942   0.98513  -0.14549
C          C       0.30940   0.33548   0.96068  -0.06767
C          C       0.38577   0.25430   0.00255  -0.06965
C          C       0.41480   0.25835   0.06956  -0.07443
C          C       0.37045   0.34316   0.09292  -0.15291
C          C       0.43723   0.16458   0.97737   0.60812
C          C       0.30273   0.53276   0.12361   0.09194
C          C       0.37200   0.59166   0.07877  -0.15114
C          C       0.42346   0.61199   0.12162  -0.08063
C          C       0.40986   0.57057   0.21055  -0.04939
C          C       0.34403   0.50864   0.25554  -0.09364
C          C       0.28939   0.49159   0.21274  -0.15123
C          C       0.46346   0.59110   0.25788   0.59041
C          C       0.60124   0.91495   0.23884   0.55075
C          C       0.66149   0.93630   0.27958  -0.05523
C          C       0.65447   0.03084   0.26693  -0.09755
C          C       0.70859   0.04849   0.30988  -0.15276
C          C       0.77326   0.97219   0.36445   0.09172
C          C       0.78248   0.87775   0.37475  -0.14986
C          C       0.72646   0.85964   0.33414  -0.09165
C          C       0.83386   0.98642   0.41389  -0.10866
C          C       0.76779   0.07735   0.44311   0.11292
C          C       0.66800   0.07811   0.51033  -0.14672
C          C       0.60379   0.15828   0.54063  -0.06978
C          C       0.63761   0.24095   0.50322  -0.06756
C          C       0.73609   0.24141   0.43501  -0.08008
C          C       0.80076   0.16008   0.40586  -0.15054
C          C       0.57168   0.32613   0.53535   0.60257
C          C       0.95912   0.97242   0.36796   0.08592
C          C       0.03997   0.91256   0.41536  -0.15260
C          C       0.15562   0.89082   0.37549  -0.08935
C          C       0.19403   0.93180   0.28692  -0.04240
C          C       0.11377   0.99518   0.23960  -0.09887
C          C      -0.00198   0.01333   0.27937  -0.14888
C          C       0.31723   0.90707   0.24282   0.58794
O          O       0.29377   0.34105   0.76189  -0.57892
O          O       0.25932   0.49609   0.68069  -0.57212
O          O       0.50081   0.92076   0.00883  -0.55367
O          O       0.59144   0.82903   0.10826  -0.52375
O          O       0.52514   0.47516   0.66710  -0.57241
O          O       0.50668   0.34134   0.77665  -0.59068
O          O       0.38989   0.15312   0.75154  -0.57941
O          O       0.43520   0.99535   0.82456  -0.57241
O          O       0.40781   0.58610   0.50694  -0.58278
O          O       0.52300   0.66479   0.40469  -0.56159
O          O       0.66901   0.01823   0.83626  -0.56914
O          O       0.62303   0.15177   0.72711  -0.59137
O          O       0.69812   0.66895   0.23294  -0.53571
O          O       0.73362   0.51316   0.31600  -0.56934
O          O       0.50118   0.09242   0.02247  -0.55099
O          O       0.42051   0.15914   0.91233  -0.56560
O          O       0.47485   0.53209   0.33176  -0.56816
O          O       0.49546   0.66600   0.22214  -0.53284
O          O       0.58454   0.83322   0.27281  -0.51633
O          O       0.56898   0.97939   0.17146  -0.51389
O          O       0.59821   0.40369   0.49605  -0.57845
O          O       0.48676   0.32447   0.60282  -0.57866
O          O       0.35119   0.96814   0.17407  -0.55916
O          O       0.38119   0.82403   0.27736  -0.53872

