data_crystal

_audit_creation_method 'AiiDA-DDEC plugin'

_cell_length_a         7.89391
_cell_length_b        14.65516
_cell_length_c        28.16266

_cell_angle_alpha     90.58420
_cell_angle_beta     89.98870
_cell_angle_gamma     89.93833

_symmetry_space_group_name_Hall 'P 1'
_symmetry_space_group_name_H-M  'P 1'

loop_
_symmetry_equiv_pos_as_xyz
 'x,y,z'

loop_
_atom_site_label
_atom_site_type_symbol
_atom_site_fract_x
_atom_site_fract_y
_atom_site_fract_z
_atom_site_charge
Zn         Zn      0.31329   0.54367   0.84411   0.92725
Zn         Zn      0.18812   0.03881   0.34377   0.92566
Zn         Zn      0.81132   0.95653   0.65619   0.92453
Zn         Zn      0.69541   0.45669   0.15604   0.92744
H          H       0.55995   0.67139   0.56131   0.12186
H          H       0.78220   0.56191   0.43380   0.11642
H          H       0.73621   0.39445   0.55819   0.11138
H          H       0.27962   0.60358   0.69096   0.13083
H          H       0.37151   0.61286   0.60694   0.10362
H          H       0.78555   0.42928   0.63648   0.11115
H          H       0.69162   0.42159   0.72080   0.12925
H          H       0.53331   0.93501   0.49473   0.12014
H          H       0.64524   0.79937   0.53274   0.12190
H          H       0.58130   0.64654   0.40149   0.10434
H          H       0.46688   0.78559   0.36343   0.12904
H          H       0.11295   0.35037   0.37240   0.12568
H          H       0.98028   0.47925   0.41634   0.10574
H          H       0.74251   0.28713   0.51107   0.10801
H          H       0.87071   0.15955   0.46539   0.13735
H          H       0.94687   0.17476   0.06051   0.12099
H          H       0.71956   0.06551   0.93380   0.11701
H          H       0.76856   0.89852   0.05835   0.11055
H          H       0.22404   0.10655   0.19113   0.13070
H          H       0.13301   0.11755   0.10698   0.10408
H          H       0.71958   0.93329   0.13525   0.11157
H          H       0.81363   0.92308   0.21954   0.12911
H          H       0.96708   0.43816   0.99388   0.11976
H          H       0.85794   0.30226   0.03223   0.12233
H          H       0.92410   0.14887   0.90127   0.10311
H          H       0.03787   0.28785   0.86296   0.12820
H          H       0.38565   0.85475   0.87357   0.12500
H          H       0.52109   0.98327   0.91695   0.10590
H          H       0.75946   0.79106   0.01146   0.10767
H          H       0.62938   0.66367   0.96636   0.13692
H          H       0.05409   0.82662   0.93972   0.12119
H          H       0.28168   0.93573   0.06634   0.11676
H          H       0.23156   0.10314   0.94194   0.11014
H          H       0.77442   0.89221   0.81001   0.12924
H          H       0.86758   0.88319   0.89391   0.10237
H          H       0.27820   0.06833   0.86400   0.11208
H          H       0.18179   0.07648   0.77986   0.12914
H          H       0.03644   0.56277   0.00679   0.11924
H          H       0.14423   0.69874   0.96816   0.12231
H          H       0.07811   0.85251   0.09910   0.10401
H          H       0.96750   0.71299   0.13771   0.12933
H          H       0.61818   0.14470   0.12652   0.12463
H          H       0.48023   0.01714   0.08314   0.10609
H          H       0.24384   0.21084   0.98906   0.10718
H          H       0.37678   0.33741   0.03412   0.13712
H          H       0.44613   0.32538   0.43876   0.12090
H          H       0.22295   0.43506   0.56608   0.11675
H          H       0.26715   0.60180   0.44141   0.11044
H          H       0.72180   0.39595   0.30796   0.12952
H          H       0.63147   0.38391   0.39214   0.10337
H          H       0.21501   0.56702   0.36451   0.11150
H          H       0.30773   0.57768   0.28010   0.13033
H          H       0.46666   0.06130   0.50667   0.11935
H          H       0.35925   0.19720   0.46773   0.12183
H          H       0.42452   0.35168   0.59838   0.10286
H          H       0.53418   0.21241   0.63738   0.12876
H          H       0.88848   0.64611   0.62657   0.12564
H          H       0.02314   0.51733   0.58296   0.10571
H          H       0.26178   0.70934   0.48853   0.10714
H          H       0.13236   0.83708   0.53381   0.13708
C          C       0.64126   0.53126   0.56563   0.06738
C          C       0.61815   0.61467   0.54220  -0.12047
C          C       0.66643   0.62651   0.49439   0.07970
C          C       0.74538   0.55387   0.47069  -0.17884
C          C       0.77255   0.46974   0.49318   0.08743
C          C       0.71789   0.45948   0.54068  -0.16232
C          C       0.42844   0.51171   0.76170   0.53862
C          C       0.47989   0.51186   0.71083  -0.02476
C          C       0.38967   0.56553   0.67852  -0.08427
C          C       0.44290   0.57105   0.63157  -0.13208
C          C       0.58598   0.52235   0.61550   0.06009
C          C       0.67384   0.46712   0.64797  -0.13711
C          C       0.62193   0.46228   0.69523  -0.08646
C          C       0.40474   0.95057   0.40508   0.54867
C          C       0.48890   0.86907   0.42657  -0.00945
C          C       0.54349   0.87240   0.47397  -0.08458
C          C       0.60683   0.79474   0.49566  -0.11751
C          C       0.61976   0.71157   0.47020   0.06311
C          C       0.57345   0.71000   0.42178  -0.14089
C          C       0.50803   0.78748   0.40028  -0.08531
C          C       0.07994   0.17155   0.38914   0.53009
C          C       0.00072   0.24756   0.41650   0.00931
C          C       0.03121   0.33812   0.40280  -0.08921
C          C       0.95647   0.40977   0.42758  -0.13222
C          C       0.85374   0.39364   0.46764   0.07093
C          C       0.82567   0.30202   0.48133  -0.11866
C          C       0.89622   0.22995   0.45578  -0.08100
C          C       0.86465   0.03492   0.06520   0.06710
C          C       0.88775   0.11809   0.04164  -0.11861
C          C       0.83767   0.12976   0.99400   0.07879
C          C       0.75739   0.05737   0.97060  -0.17564
C          C       0.73038   0.97344   0.99327   0.08717
C          C       0.78674   0.96326   0.04058  -0.16231
C          C       0.07816   0.01076   0.26076   0.53566
C          C       0.02503   0.01363   0.21011  -0.02277
C          C       0.11464   0.06859   0.17829  -0.08417
C          C       0.06208   0.07496   0.13133  -0.12992
C          C       0.91989   0.02604   0.11495   0.06144
C          C       0.83151   0.97041   0.14707  -0.13894
C          C       0.88309   0.96445   0.19427  -0.08552
C          C       0.09598   0.45404   0.90476   0.54834
C          C       0.01327   0.37197   0.92595  -0.01073
C          C       0.95831   0.37533   0.97329  -0.08379
C          C       0.89618   0.29769   0.99512  -0.11834
C          C       0.88416   0.21455   0.96969   0.06347
C          C       0.93114   0.21265   0.92134  -0.14335
C          C      -0.00392   0.29012   0.89976  -0.08261
C          C       0.41931   0.67584   0.89024   0.53014
C          C       0.49776   0.75185   0.91771   0.00843
C          C       0.46780   0.84237   0.90387  -0.08884
C          C       0.54407   0.91383   0.92831  -0.13219
C          C       0.64770   0.89757   0.96815   0.07044
C          C       0.67539   0.80603   0.98196  -0.11804
C          C       0.60346   0.73406   0.95676  -0.07935
C          C       0.13614   0.96651   0.93497   0.06598
C          C       0.11313   0.88332   0.95857  -0.11901
C          C       0.16324   0.87162   0.00619   0.07966
C          C       0.24366   0.94398   0.02956  -0.17603
C          C       0.27064   0.02797   0.00692   0.08707
C          C       0.21408   0.03821   0.95961  -0.16201
C          C       0.91986   0.98590   0.73932   0.53771
C          C       0.97235   0.98502   0.79007  -0.02451
C          C       0.88378   0.93074   0.82240  -0.08241
C          C       0.93761   0.92557   0.86929  -0.12993
C          C       0.07983   0.97503   0.88523   0.06057
C          C       0.16644   0.03051   0.85265  -0.13931
C          C       0.11362   0.03529   0.80550  -0.08396
C          C       0.90826   0.54785   0.09610   0.54850
C          C       0.99116   0.62934   0.07468  -0.01214
C          C       0.04523   0.62575   0.02727  -0.08347
C          C       0.10637   0.70347   0.00530  -0.11865
C          C       0.11759   0.78678   0.03061   0.06046
C          C       0.07168   0.78874   0.07903  -0.14404
C          C       0.00833   0.71113   0.10082  -0.08263
C          C       0.58915   0.32403   0.10999   0.53246
C          C       0.50763   0.24861   0.08265   0.01234
C          C       0.53585   0.15780   0.09635  -0.09145
C          C       0.45786   0.08678   0.07194  -0.13328
C          C       0.35401   0.10358   0.03219   0.07132
C          C       0.32771   0.19538   0.01856  -0.11742
C          C       0.40143   0.26690   0.04376  -0.08115
C          C       0.36268   0.46519   0.43429   0.06694
C          C       0.38719   0.38200   0.45779  -0.11899
C          C       0.33903   0.37046   0.50560   0.07981
C          C       0.25954   0.44304   0.52918  -0.17828
C          C       0.23174   0.52700   0.50659   0.08656
C          C       0.28588   0.53700   0.45911  -0.16372
C          C       0.57173   0.48993   0.23836   0.53824
C          C       0.52041   0.48765   0.28921  -0.02348
C          C       0.61169   0.43324   0.32093  -0.08391
C          C       0.55956   0.42632   0.36790  -0.13163
C          C       0.41657   0.47447   0.38444   0.05944
C          C       0.32718   0.53014   0.35252  -0.13933
C          C       0.37809   0.53643   0.30527  -0.08651
C          C       0.59259   0.04587   0.59612   0.54874
C          C       0.51082   0.12795   0.57455  -0.01265
C          C       0.45757   0.12439   0.52706  -0.08441
C          C       0.39688   0.20213   0.50488  -0.11839
C          C       0.38523   0.28564   0.53003   0.06248
C          C       0.43111   0.28773   0.57846  -0.14409
C          C       0.49384   0.21010   0.60046  -0.08312
C          C       0.92016   0.82450   0.60985   0.53398
C          C       0.00121   0.74897   0.58257   0.01052
C          C       0.97092   0.65839   0.59633  -0.09034
C          C       0.04677   0.58683   0.57179  -0.13294
C          C       0.15018   0.60304   0.53193   0.07191
C          C       0.17814   0.69461   0.51816  -0.11666
C          C       0.10675   0.76671   0.54351  -0.08151
O          O       0.29810   0.56074   0.77384  -0.50634
O          O       0.50903   0.46786   0.79281  -0.48185
O          O       0.41731   0.02778   0.42400  -0.46458
O          O       0.31703   0.93478   0.36670  -0.53283
O          O       0.21735   0.18504   0.36682  -0.48436
O          O       0.00790   0.09294   0.38824  -0.49624
O          O       0.20040   0.06447   0.27399  -0.50627
O          O       0.00672   0.95963   0.29054  -0.48293
O          O       0.08246   0.53099   0.92399  -0.46511
O          O       0.18378   0.43906   0.86632  -0.53124
O          O       0.28403   0.68932   0.86678  -0.48994
O          O       0.49074   0.59707   0.89027  -0.49453
O          O       0.79948   0.93098   0.72610  -0.50653
O          O       0.99149   0.03664   0.70937  -0.48272
O          O       0.91692   0.47146   0.07604  -0.46896
O          O       0.82511   0.56244   0.13545  -0.53085
O          O       0.72813   0.31021   0.13140  -0.49160
O          O       0.51631   0.40250   0.11175  -0.49741
O          O       0.70046   0.43959   0.22588  -0.51208
O          O       0.49295   0.53660   0.20818  -0.47659
O          O       0.58305   0.96945   0.57614  -0.46628
O          O       0.67543   0.06026   0.63552  -0.53266
O          O       0.78102   0.81050   0.63114  -0.48675
O          O       0.99231   0.90303   0.61180  -0.49720

