data_crystal

_audit_creation_method 'AiiDA-DDEC plugin'

_cell_length_a         4.67379
_cell_length_b        18.86007
_cell_length_c        22.53698

_cell_angle_alpha     89.92270
_cell_angle_beta     90.00000
_cell_angle_gamma     90.00000

_symmetry_space_group_name_Hall 'P 1'
_symmetry_space_group_name_H-M  'P 1'

loop_
_symmetry_equiv_pos_as_xyz
 'x,y,z'

loop_
_atom_site_label
_atom_site_type_symbol
_atom_site_fract_x
_atom_site_fract_y
_atom_site_fract_z
_atom_site_charge
Zn         Zn      0.20940   0.33024   0.20465   0.77891
Zn         Zn      0.78953   0.83059   0.29544   0.77777
Zn         Zn      0.20940   0.66976   0.79534   0.77886
Zn         Zn      0.78953   0.16940   0.70455   0.77783
H          H       0.87775   0.15430   0.19516   0.13209
H          H       0.26801   0.52292   0.32016   0.09595
H          H       0.02633   0.20898   0.40758   0.11269
H          H       0.26603   0.75548   0.90264   0.08788
H          H       0.26802   0.47707   0.67984   0.09604
H          H       0.26603   0.24452   0.09736   0.08789
H          H       0.87775   0.84570   0.80483   0.13213
H          H       0.76146   0.42244   0.94294   0.29881
H          H       0.38302   0.04647   0.20339   0.10293
H          H       0.29128   0.23320   0.31536   0.09818
H          H       0.98223   0.57545   0.11451   0.30678
H          H       0.36720   0.68179   0.54794   0.10509
H          H       0.73257   0.02366   0.18011   0.09601
H          H       0.73714   0.60509   0.73329   0.10987
H          H       0.89654   0.08326   0.28046   0.05345
H          H       0.70272   0.40294   0.14529   0.11416
H          H       0.33323   0.63543   0.36656   0.11379
H          H       0.73634   0.74507   0.40267   0.08784
H          H       0.73714   0.39491   0.26671   0.10991
H          H       0.02126   0.92709   0.61490   0.30666
H          H       0.30692   0.89486   0.71078   0.26332
H          H       0.71212   0.26581   0.81492   0.09839
H          H       0.30070   0.90325   0.35420   0.11484
H          H       0.11100   0.58221   0.21919   0.05297
H          H       0.38302   0.95353   0.79661   0.10287
H          H      -0.00564   0.21817   0.00423   0.11385
H          H       0.29128   0.76680   0.68464   0.09809
H          H       0.69923   0.39612   0.78818   0.26312
H          H       0.30070   0.09675   0.64579   0.11478
H          H       0.36720   0.31821   0.45205   0.10502
H          H       0.70273   0.59706   0.85471   0.11442
H          H       0.62009   0.45616   0.70277   0.10267
H          H       0.71212   0.73419   0.18508   0.09835
H          H       0.23834   0.07362   0.44322   0.30137
H          H       0.27032   0.89485   0.23385   0.11003
H          H       0.56089   0.12175   0.85785   0.11889
H          H       0.00676   0.28072   0.50382   0.11370
H          H       0.69923   0.60387   0.21181   0.26304
H          H       0.44515   0.37815   0.35832   0.11961
H          H      -0.00564   0.78183   0.99576   0.11374
H          H       0.76146   0.57756   0.05705   0.29900
H          H       0.66267   0.17275   0.45924   0.11736
H          H       0.02633   0.79101   0.59241   0.11268
H          H       0.97433   0.28940   0.90749   0.11219
H          H       0.63474   0.81912   0.04776   0.10583
H          H       0.12929   0.34696   0.69594   0.13234
H          H       0.66267   0.82725   0.54075   0.11732
H          H       0.27032   0.10515   0.76615   0.11011
H          H       0.89654   0.91674   0.71954   0.05352
H          H       0.11100   0.41779   0.78081   0.05284
H          H       0.63474   0.18088   0.95224   0.10591
H          H       0.73634   0.25493   0.59733   0.08780
H          H       0.12929   0.65304   0.30405   0.13234
H          H       0.56089   0.87825   0.14215   0.11886
H          H       0.02125   0.07291   0.38510   0.30675
H          H       0.67152   0.86354   0.86699   0.11357
H          H       0.00676   0.71928   0.49617   0.11363
H          H       0.58596   0.11181   0.55273   0.13408
H          H       0.67152   0.13646   0.13300   0.11384
H          H       0.58596   0.88819   0.44727   0.13404
H          H       0.41700   0.61231   0.94782   0.13356
H          H       0.23835   0.92638   0.55677   0.30161
H          H       0.41700   0.38769   0.05218   0.13360
H          H       0.33322   0.36457   0.63344   0.11402
H          H       0.44515   0.62185   0.64168   0.11966
H          H       0.97433   0.71060   0.09251   0.11231
H          H       0.73258   0.97634   0.81989   0.09585
H          H       0.98223   0.42455   0.88548   0.30687
H          H       0.62009   0.54384   0.29723   0.10268
H          H       0.33839   0.32621   0.95924   0.11726
H          H       0.30692   0.10514   0.28921   0.26344
H          H       0.33839   0.67379   0.04075   0.11728
C          C       0.89270   0.23315   0.82734   0.10164
C          C       0.48450   0.77736   0.05960  -0.10971
C          C       0.21328   0.47387   0.21423   0.54048
C          C       0.39652   0.55994   0.29361  -0.16786
C          C       0.37868   0.15597   0.84931  -0.17172
C          C       0.60798   0.93859   0.79338  -0.16818
C          C       0.30819   0.44931   0.77190   0.06103
C          C       0.11070   0.73413   0.67226   0.10306
C          C       0.48673   0.28422   0.97141  -0.09288
C          C       0.55080   0.56265   0.13141   0.67767
C          C       0.24584   0.86292   0.38662   0.11414
C          C       0.29694   0.20847   0.89046   0.11621
C          C       0.51438   0.21475   0.47132  -0.09113
C          C       0.29694   0.79152   0.10953   0.11608
C          C       0.89270   0.76685   0.17265   0.10170
C          C       0.21328   0.52613   0.78576   0.54063
C          C       0.59377   0.64796   0.93824  -0.16332
C          C       0.69798   0.94797   0.72787   0.05932
C          C       0.21280   0.14551   0.79844   0.07411
C          C       0.44614   0.19173   0.20013   0.60972
C          C       0.67394   0.29855   0.02144   0.11825
C          C       0.51732   0.72358   0.55968  -0.10936
C          C       0.55080   0.43735   0.86858   0.67789
C          C       0.75699   0.36253   0.11298   0.11435
C          C       0.66001   0.86390   0.81820  -0.31992
C          C       0.95463   0.74796   0.62083  -0.21145
C          C       0.48450   0.22264   0.94039  -0.10997
C          C       0.69798   0.05202   0.27213   0.05920
C          C       0.55993   0.69088   0.29968   0.60661
C          C       0.34662   0.36509   0.68216  -0.31992
C          C       0.39652   0.44006   0.70638  -0.16776
C          C       0.08034   0.76071   0.46639  -0.21558
C          C       0.34662   0.63491   0.31783  -0.31990
C          C       0.79320   0.35432   0.29900   0.07530
C          C       0.92382   0.22452   0.58478   0.08703
C          C       0.24584   0.13707   0.61338   0.11416
C          C       0.32764   0.20056   0.52146   0.12035
C          C       0.44614   0.80827   0.79986   0.60969
C          C       0.07833   0.72515   0.91522   0.08628
C          C       0.70633   0.29069   0.39066   0.11705
C          C       0.62672   0.34376   0.34975  -0.17223
C          C       0.48673   0.71578   0.02859  -0.09298
C          C       0.04780   0.24676   0.87893  -0.21018
C          C       0.66001   0.13609   0.18180  -0.31998
C          C       0.79051   0.02509   0.71376   0.54362
C          C       0.30819   0.55069   0.22809   0.06099
C          C       0.67394   0.70144   0.97855   0.11823
C          C       0.60798   0.06141   0.20662  -0.16815
C          C       0.04780   0.75324   0.12107  -0.21015
C          C       0.40887   0.14741   0.56209  -0.16624
C          C       0.92382   0.77548   0.41521   0.08711
C          C       0.37868   0.84403   0.15068  -0.17151
C          C       0.51438   0.78525   0.52867  -0.09137
C          C       0.79321   0.64568   0.70100   0.07527
C          C       0.21279   0.85449   0.20156   0.07393
C          C       0.92118   0.74018   0.96624  -0.21441
C          C       0.75700   0.63747   0.88702   0.11421
C          C       0.95463   0.25204   0.37917  -0.21155
C          C       0.51732   0.27642   0.44031  -0.10949
C          C       0.40887   0.85259   0.43790  -0.16629
C          C       0.45253   0.06101   0.36875   0.67804
C          C       0.70633   0.70931   0.60934   0.11710
C          C       0.11070   0.26586   0.32774   0.10303
C          C       0.79051   0.97491   0.28623   0.54368
C          C       0.62672   0.65624   0.65025  -0.17215
C          C       0.45253   0.93899   0.63124   0.67781
C          C       0.55993   0.30912   0.70032   0.60662
C          C       0.92118   0.25982   0.03376  -0.21403
C          C       0.59377   0.35204   0.06176  -0.16342
C          C       0.32764   0.79943   0.47854   0.12039
C          C       0.08034   0.23929   0.53360  -0.21544
C          C       0.07833   0.27485   0.08478   0.08605
N          N       0.22045   0.91022   0.59987  -0.68998
N          N       0.98012   0.18463   0.78661  -0.22218
N          N       0.46904   0.07806   0.31003  -0.42709
N          N       0.78173   0.40745   0.89965  -0.68721
N          N       0.53950   0.57634   0.19070  -0.42414
N          N       0.01025   0.82477   0.37492  -0.21244
N          N       0.99230   0.32432   0.12485  -0.21094
N          N       0.53950   0.42365   0.80929  -0.42423
N          N       0.02438   0.31473   0.28711  -0.22450
N          N       0.98012   0.81537   0.21339  -0.22226
N          N       0.22044   0.08978   0.40013  -0.69008
N          N       0.01025   0.17523   0.62507  -0.21267
N          N       0.99230   0.67568   0.87515  -0.21079
N          N       0.78173   0.59255   0.10035  -0.68720
N          N       0.46905   0.92194   0.68997  -0.42695
N          N       0.02438   0.68526   0.71288  -0.22467
O          O       0.35680   0.47189   0.89393  -0.56489
O          O       0.64371   0.02476   0.39337  -0.56182
O          O       0.97241   0.53581   0.80731  -0.54051
O          O       0.50345   0.25667   0.18467  -0.58599
O          O       0.03122   0.03553   0.69250  -0.54097
O          O       0.38916   0.42257   0.22771  -0.54046
O          O       0.03122   0.96447   0.30750  -0.54103
O          O       0.22731   0.82480   0.77026  -0.53110
O          O       0.49919   0.24431   0.68494  -0.58480
O          O       0.38916   0.57743   0.77228  -0.54055
O          O       0.64371   0.97524   0.60662  -0.56160
O          O       0.77995   0.32500   0.72976  -0.52827
O          O       0.22731   0.17520   0.22973  -0.53121
O          O       0.61197   0.07590   0.72682  -0.54109
O          O       0.97241   0.46419   0.19269  -0.54040
O          O       0.49918   0.75569   0.31505  -0.58493
O          O       0.35680   0.52811   0.10606  -0.56456
O          O       0.50345   0.74333   0.81533  -0.58602
O          O       0.77995   0.67500   0.27023  -0.52810
O          O       0.61197   0.92410   0.27317  -0.54096

