data_crystal

_audit_creation_method 'AiiDA-DDEC plugin'

_cell_length_a        12.65663
_cell_length_b        14.59359
_cell_length_c        18.12720

_cell_angle_alpha     83.21466
_cell_angle_beta     68.33524
_cell_angle_gamma     85.68197

_symmetry_space_group_name_Hall 'P 1'
_symmetry_space_group_name_H-M  'P 1'

loop_
_symmetry_equiv_pos_as_xyz
 'x,y,z'

loop_
_atom_site_label
_atom_site_type_symbol
_atom_site_fract_x
_atom_site_fract_y
_atom_site_fract_z
_atom_site_charge
K          K       0.43464   0.50811   0.91353   0.87036
K          K       0.56536   0.49188   0.08646   0.87038
Ni         Ni      0.20891   0.02339   0.48321   0.39323
Ni         Ni      0.79109   0.97661   0.51678   0.39319
H          H       0.24805   0.37961   0.43946   0.12639
H          H       0.14690   0.34225   0.34068   0.12254
H          H       0.94693   0.04565   0.31872   0.13420
H          H       0.97439   0.86246   0.35690   0.13150
H          H       0.26973   0.66931   0.46487   0.12688
H          H       0.36779   0.70555   0.56714   0.12220
H          H       0.36770  -0.00118   0.71069   0.13149
H          H       0.32649   0.18212   0.68108   0.13433
H          H       0.92208   0.28856   0.39306   0.10371
H          H       0.85008   0.38198   0.29572   0.13054
H          H       0.08234   0.23224   0.10704   0.11285
H          H       0.15125   0.13894   0.20374   0.11127
H          H       0.95866   0.28631   0.05575   0.10527
H          H       0.03661   0.38979   0.03258   0.09979
H          H       0.82967   0.44521   0.94038   0.34453
H          H       0.18799   0.80687   0.27185   0.11367
H          H       0.18063   0.66823   0.20900   0.12617
H          H       0.06081   0.51335   0.43987   0.12567
H          H       0.06132   0.65578   0.50366   0.10410
H          H       0.07817   0.55529   0.19382   0.11369
H          H       0.10562   0.43445   0.20355   0.10821
H          H       0.23609   0.76290   0.71868   0.10067
H          H       0.31361   0.67593   0.81499   0.13157
H          H       0.63201   0.81279   0.69350   0.11503
H          H       0.55377   0.89775   0.59881   0.10683
H          H       0.60918   0.80038   0.82513   0.11883
H          H       0.68632   0.69974   0.78452   0.11794
H          H       0.69875   0.68951   0.97420   0.39268
H          H       0.13873   0.37981   0.58703   0.10342
H          H       0.19642   0.52208   0.62198   0.12499
H          H       0.52718   0.39521   0.59181   0.12158
H          H       0.47064   0.25637   0.55449   0.10560
H          H       0.51020   0.63797   0.62339   0.11947
H          H       0.56641   0.54061   0.56971   0.09829
H          H       0.65265   0.50583   0.73667   0.36418
H          H       0.75195   0.62039   0.56054   0.12643
H          H       0.85310   0.65775   0.65932   0.12245
H          H       0.05307   0.95435   0.68128   0.13418
H          H       0.02561   0.13754   0.64309   0.13146
H          H       0.73027   0.33069   0.53512   0.12668
H          H       0.63221   0.29445   0.43285   0.12222
H          H       0.63230   0.00117   0.28931   0.13162
H          H       0.67351   0.81788   0.31892   0.13444
H          H       0.07793   0.71144   0.60694   0.10386
H          H       0.14992   0.61802   0.70427   0.13056
H          H       0.91767   0.76776   0.89296   0.11272
H          H       0.84875   0.86106   0.79626   0.11120
H          H       0.04134   0.71369   0.94425   0.10520
H          H       0.96339   0.61021   0.96741   0.09979
H          H       0.17033   0.55479   0.05962   0.34445
H          H       0.81201   0.19313   0.72814   0.11363
H          H       0.81937   0.33177   0.79100   0.12599
H          H       0.93920   0.48664   0.56013   0.12568
H          H       0.93869   0.34422   0.49634   0.10423
H          H       0.92183   0.44471   0.80618   0.11365
H          H       0.89438   0.56555   0.79644   0.10810
H          H       0.76391   0.23709   0.28132   0.10063
H          H       0.68639   0.32407   0.18501   0.13162
H          H       0.36799   0.18721   0.30650   0.11503
H          H       0.44623   0.10225   0.40119   0.10678
H          H       0.39082   0.19962   0.17487   0.11885
H          H       0.31368   0.30025   0.21547   0.11782
H          H       0.30125   0.31049   0.02580   0.39278
H          H       0.86127   0.62018   0.41296   0.10341
H          H       0.80358   0.47792   0.37802   0.12495
H          H       0.47282   0.60479   0.40819   0.12159
H          H       0.52936   0.74363   0.44551   0.10539
H          H       0.48980   0.36203   0.37660   0.11955
H          H       0.43359   0.45938   0.43029   0.09823
H          H       0.34735   0.49417   0.26332   0.36441
C          C       0.22916   0.22871   0.48058   0.16419
C          C       0.21897   0.31368   0.43457  -0.17940
C          C       0.16871   0.29433   0.38359  -0.20162
C          C       0.14793   0.19719   0.39824   0.15565
C          C       0.08915   0.15295   0.36188  -0.07268
C          C       0.07334   0.05830   0.37639   0.16708
C          C       0.00240   0.01145   0.34756  -0.18647
C          C       0.01631   0.91929   0.36674  -0.18201
C          C       0.09673   0.90965   0.40652   0.16965
C          C       0.14451   0.82515   0.42524  -0.06477
C          C       0.21626   0.81908   0.46858   0.16307
C          C       0.27138   0.73448   0.48731  -0.19055
C          C       0.32188   0.75312   0.53835  -0.17598
C          C       0.30105   0.84965   0.54899   0.16176
C          C       0.33596   0.89325   0.59998  -0.05985
C          C       0.31883   0.98791   0.60564   0.16638
C          C       0.34096   0.03382   0.66415  -0.18015
C          C       0.32037   0.12581   0.64920  -0.18213
C          C       0.28695   0.13668   0.58082   0.16518
C          C       0.27023   0.22229   0.54275  -0.06491
C          C       0.04383   0.20805   0.30501   0.06112
C          C       0.95892   0.27764   0.33022  -0.10493
C          C       0.91836   0.33007   0.27662  -0.19664
C          C       0.96266   0.31463   0.19567   0.23770
C          C       0.04633   0.24527   0.16932  -0.23651
C          C       0.08558   0.19250   0.22430  -0.11343
C          C       0.95300   0.35972   0.06619  -0.12274
C          C       0.86387   0.40726   0.03563   0.60525
C          C       0.12781   0.74162   0.39198   0.06362
C          C       0.15820   0.74304   0.30914  -0.10450
C          C       0.15422   0.66442   0.27342  -0.22806
C          C       0.12015   0.58152   0.32128   0.25339
C          C       0.08736   0.57874   0.40425  -0.20421
C          C       0.08997   0.65810   0.43907  -0.11486
C          C       0.13353   0.50152   0.21017  -0.14682
C          C       0.25676   0.51145   0.15216   0.59003
C          C       0.38807   0.83781   0.65296   0.05824
C          C       0.32259   0.77364   0.71363  -0.11175
C          C       0.36506   0.72561   0.76830  -0.19969
C          C       0.47526   0.74218   0.76298   0.23347
C          C       0.54421   0.80276   0.70121  -0.22340
C          C       0.49986   0.85048   0.64673  -0.10956
C          C       0.60749   0.72435   0.83040  -0.11799
C          C       0.60806   0.68778   0.91191   0.61280
C          C       0.30094   0.30721   0.56692   0.05039
C          C       0.22448   0.38364   0.58680  -0.11221
C          C       0.25623   0.46358   0.60712  -0.20647
C          C       0.36558   0.46917   0.60917   0.25112
C          C       0.44221   0.39349   0.59057  -0.22289
C          C       0.40947   0.31402   0.56977  -0.10867
C          C       0.50234   0.56307   0.62510  -0.13682
C          C       0.52703   0.51826   0.69773   0.59569
C          C       0.77084   0.77129   0.51941   0.16417
C          C       0.78103   0.68632   0.56543  -0.17934
C          C       0.83129   0.70567   0.61640  -0.20162
C          C       0.85207   0.80281   0.60175   0.15550
C          C       0.91085   0.84705   0.63812  -0.07249
C          C       0.92666   0.94170   0.62361   0.16704
C          C      -0.00240   0.98855   0.65243  -0.18669
C          C       0.98369   0.08071   0.63326  -0.18211
C          C       0.90327   0.09035   0.59347   0.16978
C          C       0.85549   0.17484   0.57475  -0.06485
C          C       0.78374   0.18092   0.53142   0.16286
C          C       0.72862   0.26552   0.51269  -0.19055
C          C       0.67812   0.24688   0.46164  -0.17595
C          C       0.69895   0.15034   0.45100   0.16187
C          C       0.66404   0.10675   0.40001  -0.05989
C          C       0.68117   0.01208   0.39436   0.16623
C          C       0.65904   0.96618   0.33585  -0.18004
C          C       0.67963   0.87419   0.35080  -0.18208
C          C       0.71305   0.86332   0.41918   0.16529
C          C       0.72977   0.77771   0.45725  -0.06491
C          C       0.95617   0.79195   0.69499   0.06091
C          C       0.04108   0.72236   0.66978  -0.10477
C          C       0.08164   0.66992   0.72338  -0.19663
C          C       0.03734   0.68537   0.80433   0.23787
C          C       0.95367   0.75473   0.83067  -0.23674
C          C       0.91443   0.80750   0.77569  -0.11334
C          C       0.04700   0.64028   0.93381  -0.12293
C          C       0.13613   0.59273   0.96436   0.60554
C          C       0.87220   0.25838   0.60802   0.06375
C          C       0.84180   0.25695   0.69086  -0.10451
C          C       0.84578   0.33558   0.72658  -0.22816
C          C       0.87985   0.41848   0.67872   0.25341
C          C       0.91264   0.42126   0.59575  -0.20428
C          C       0.91003   0.34190   0.56093  -0.11472
C          C       0.86647   0.49848   0.78982  -0.14679
C          C       0.74324   0.48854   0.84783   0.59014
C          C       0.61193   0.16218   0.34704   0.05827
C          C       0.67741   0.22636   0.28636  -0.11168
C          C       0.63494   0.27439   0.23170  -0.19976
C          C       0.52474   0.25782   0.23702   0.23352
C          C       0.45579   0.19723   0.29878  -0.22341
C          C       0.50014   0.14952   0.35327  -0.10958
C          C       0.39251   0.27565   0.16960  -0.11795
C          C       0.39194   0.31222   0.08808   0.61278
C          C       0.69906   0.69279   0.43308   0.05028
C          C       0.77552   0.61636   0.41320  -0.11215
C          C       0.74377   0.53642   0.39287  -0.20641
C          C       0.63442   0.53083   0.39083   0.25125
C          C       0.55779   0.60651   0.40943  -0.22291
C          C       0.59053   0.68598   0.43022  -0.10845
C          C       0.49766   0.43693   0.37489  -0.13693
C          C       0.47297   0.48174   0.30226   0.59553
N          N       0.18933   0.15594   0.45596  -0.29532
N          N       0.12714   0.99577   0.41627  -0.29215
N          N       0.23844   0.89093   0.50423  -0.29254
N          N       0.28128   0.05104   0.55609  -0.29312
N          N       0.81067   0.84406   0.54404  -0.29524
N          N       0.87286   0.00423   0.58372  -0.29210
N          N       0.76156   0.10907   0.49577  -0.29232
N          N       0.71872   0.94896   0.44390  -0.29335
O          O       0.91607   0.37111   0.14877  -0.16725
O          O       0.76894   0.43105   0.08087  -0.54102
O          O       0.89973   0.41746   0.95674  -0.50217
O          O       0.11645   0.49909   0.29267  -0.17812
O          O       0.33805   0.50457   0.17720  -0.59222
O          O       0.26955   0.52300   0.07813  -0.60640
O          O       0.50859   0.69424   0.82241  -0.20898
O          O       0.69967   0.71810   0.92238  -0.47451
O          O       0.53837   0.63814   0.96280  -0.53875
O          O       0.38928   0.55110   0.62944  -0.17331
O          O       0.63750   0.52311   0.68501  -0.48702
O          O       0.45439   0.48595   0.75958  -0.53380
O          O       0.08393   0.62889   0.85123  -0.16715
O          O       0.23106   0.56894   0.91913  -0.54094
O          O       0.10027   0.58254   0.04326  -0.50251
O          O       0.88355   0.50091   0.70732  -0.17809
O          O       0.66195   0.49543   0.82279  -0.59206
O          O       0.73045   0.47700   0.92187  -0.60668
O          O       0.49142   0.30575   0.17758  -0.20888
O          O       0.30033   0.28190   0.07761  -0.47454
O          O       0.46163   0.36186   0.03720  -0.53869
O          O       0.61072   0.44890   0.37056  -0.17327
O          O       0.36250   0.47689   0.31499  -0.48721
O          O       0.54561   0.51404   0.24041  -0.53360

