data_crystal

_audit_creation_method 'AiiDA-DDEC plugin'

_cell_length_a        13.16734
_cell_length_b        14.70511
_cell_length_c        22.28242

_cell_angle_alpha     90.00008
_cell_angle_beta     89.99865
_cell_angle_gamma     93.24865

_symmetry_space_group_name_Hall 'P 1'
_symmetry_space_group_name_H-M  'P 1'

loop_
_symmetry_equiv_pos_as_xyz
 'x,y,z'

loop_
_atom_site_label
_atom_site_type_symbol
_atom_site_fract_x
_atom_site_fract_y
_atom_site_fract_z
_atom_site_charge
Cd         Cd      0.32105   0.17505   0.97816   1.02152
Cd         Cd      0.17899   0.32495   0.47814   1.02178
Cd         Cd      0.67895   0.82496   0.02184   1.02169
Cd         Cd      0.82101   0.67506   0.52186   1.02173
Cd         Cd      0.50000   0.00000   0.00000   1.14471
Cd         Cd     -0.00000   0.50000   0.50000   1.14483
H          H       0.95050   0.79439   0.01601   0.14449
H          H       0.32657   0.85134   0.03612   0.12478
H          H       0.13277   0.37565   0.11363   0.12021
H          H       0.19534   0.46707   0.93389   0.12183
H          H       0.24476   0.70082   0.06443   0.14023
H          H       0.40558   0.18037   0.77329   0.12872
H          H       0.73862   0.03637   0.76950   0.14069
H          H       0.05528   0.52536   0.13741   0.14260
H          H       0.12589   0.61811   0.95772   0.12598
H          H       0.67077   0.25817   0.66514   0.13139
H          H       0.49587   0.15675   0.67481   0.12743
H          H       0.81027   0.36054   0.62037   0.12541
H          H       0.03389   0.94260   0.98341   0.12193
H          H       0.84061   0.02450   0.62259   0.14165
H          H       0.64736   0.05810   0.86749   0.12317
H          H       0.98118   0.12880   0.57961   0.12863
H          H       0.54950   0.70562   0.51600   0.14427
H          H       0.17343   0.64865   0.53612   0.12489
H          H       0.36721   0.12432   0.61363   0.12021
H          H       0.30463   0.03289   0.43389   0.12185
H          H       0.25523   0.79918   0.56443   0.14048
H          H       0.09443   0.31962   0.27329   0.12863
H          H       0.76140   0.46366   0.26949   0.14088
H          H       0.44471   0.97462   0.63739   0.14241
H          H       0.37409   0.88186   0.45773   0.12560
H          H       0.82926   0.24184   0.16514   0.13134
H          H       0.00416   0.34327   0.17481   0.12719
H          H       0.68977   0.13946   0.12038   0.12531
H          H       0.46612   0.55740   0.48341   0.12157
H          H       0.65942   0.47551   0.12258   0.14188
H          H       0.85263   0.44190   0.36748   0.12324
H          H       0.51885   0.37119   0.07961   0.12865
H          H       0.04950   0.20561   0.98399   0.14447
H          H       0.67343   0.14866   0.96387   0.12484
H          H       0.86723   0.62435   0.88637   0.12048
H          H       0.80465   0.53293   0.06611   0.12174
H          H       0.75523   0.29919   0.93557   0.14062
H          H       0.59442   0.81963   0.22671   0.12846
H          H       0.26137   0.96364   0.23049   0.14088
H          H       0.94472   0.47465   0.86259   0.14268
H          H       0.87410   0.38190   0.04228   0.12571
H          H       0.32922   0.74184   0.33486   0.13120
H          H       0.50413   0.84326   0.32519   0.12718
H          H       0.18973   0.63947   0.37963   0.12524
H          H       0.96611   0.05740   0.01659   0.12157
H          H       0.15939   0.97551   0.37740   0.14185
H          H       0.35264   0.94190   0.13251   0.12344
H          H       0.01881   0.87120   0.42039   0.12871
H          H       0.45050   0.29439   0.48399   0.14437
H          H       0.82657   0.35135   0.46387   0.12495
H          H       0.63279   0.87569   0.38637   0.12014
H          H       0.69536   0.96712   0.56611   0.12171
H          H       0.74477   0.20082   0.43557   0.14024
H          H       0.90557   0.68039   0.72671   0.12879
H          H       0.23860   0.53635   0.73051   0.14076
H          H       0.55528   0.02539   0.36260   0.14266
H          H       0.62590   0.11815   0.54227   0.12565
H          H       0.17074   0.75817   0.83486   0.13161
H          H       0.99584   0.65674   0.82519   0.12712
H          H       0.31023   0.86054   0.87962   0.12549
H          H       0.53388   0.44261   0.51659   0.12177
H          H       0.34058   0.52450   0.87741   0.14163
H          H       0.14737   0.55810   0.63252   0.12325
H          H       0.48115   0.62882   0.92038   0.12841
C          C       0.23092  -0.00040   0.99342   0.56366
C          C       0.46805   0.13453   0.88394   0.57874
C          C       0.16882   0.41348   0.02275  -0.01486
C          C       0.52177   0.12141   0.82579  -0.04410
C          C       0.18510   0.90697   0.00785  -0.02413
C          C       0.21375   0.32517   0.00911   0.53582
C          C       0.03232   0.80731   0.02007  -0.17727
C          C       0.09348   0.73991   0.04200   0.25901
C          C       0.24498   0.83814   0.03005  -0.07366
C          C       0.12875   0.42916   0.08015  -0.07504
C          C       0.16657   0.48123   0.97845  -0.07217
C          C       0.19970   0.75414   0.04634  -0.19198
C          C       0.90330   0.25034   0.59749  -0.03971
C          C       0.62137   0.09540   0.71785   0.24812
C          C       0.47827   0.14879   0.77167  -0.07293
C          C       0.66612   0.06813   0.77125  -0.19741
C          C       0.08663   0.51126   0.09342  -0.18721
C          C       0.12761   0.56465   0.99137  -0.19483
C          C       0.98382   0.31148   0.56837   0.59119
C          C       0.73893   0.23059   0.64658  -0.21308
C          C       0.52782   0.13556   0.71724  -0.20962
C          C       0.81623   0.28715   0.62195  -0.06596
C          C       0.07913   0.88992   0.00208  -0.06107
C          C       0.08827   0.57917   0.04904   0.26541
C          C       0.83529   0.09803   0.62170  -0.20550
C          C       0.74856   0.13606   0.64538   0.26667
C          C       0.61560   0.08063   0.82530  -0.06003
C          C       0.91259   0.15562   0.59817  -0.06228
C          C       0.26908   0.50041   0.49342   0.56403
C          C       0.03194   0.36549   0.38394   0.57848
C          C       0.33117   0.08648   0.52274  -0.01495
C          C       0.97822   0.37860   0.32579  -0.04429
C          C       0.31490   0.59303   0.50784  -0.02416
C          C       0.28624   0.17479   0.50910   0.53660
C          C       0.46768   0.69269   0.52006  -0.17698
C          C       0.40652   0.76009   0.54200   0.25886
C          C       0.25502   0.66186   0.53005  -0.07360
C          C       0.37124   0.07082   0.58014  -0.07500
C          C       0.33342   0.01874   0.47845  -0.07208
C          C       0.30030   0.74586   0.54635  -0.19190
C          C       0.59672   0.24966   0.09750  -0.03954
C          C       0.87865   0.40460   0.21784   0.24769
C          C       0.02174   0.35121   0.27167  -0.07320
C          C       0.83389   0.43187   0.27124  -0.19734
C          C       0.41335   0.98871   0.59341  -0.18727
C          C       0.37237   0.93532   0.49136  -0.19446
C          C       0.51619   0.18852   0.06838   0.59103
C          C       0.76110   0.26942   0.14658  -0.21346
C          C       0.97221   0.36444   0.21724  -0.20919
C          C       0.68380   0.21285   0.12196  -0.06604
C          C       0.42088   0.61009   0.50208  -0.06110
C          C       0.41171   0.92082   0.54903   0.26568
C          C       0.66474   0.40198   0.12170  -0.20572
C          C       0.75148   0.36394   0.14537   0.26660
C          C       0.88440   0.41937   0.32529  -0.05967
C          C       0.58744   0.34438   0.09817  -0.06205
C          C       0.76908   0.00041   0.00657   0.56383
C          C       0.53194   0.86548   0.11606   0.57870
C          C       0.83118   0.58652   0.97725  -0.01475
C          C       0.47822   0.87860   0.17421  -0.04439
C          C       0.81490   0.09303   0.99215  -0.02428
C          C       0.78625   0.67483   0.99088   0.53555
C          C       0.96768   0.19269   0.97993  -0.17734
C          C       0.90651   0.26010   0.95800   0.25871
C          C       0.75501   0.16186   0.96995  -0.07338
C          C       0.87124   0.57084   0.91985  -0.07493
C          C       0.83343   0.51878   0.02154  -0.07219
C          C       0.80030   0.24586   0.95365  -0.19190
C          C       0.09669   0.74967   0.40250  -0.03990
C          C       0.37863   0.90460   0.28215   0.24809
C          C       0.52173   0.85122   0.22832  -0.07277
C          C       0.33387   0.93187   0.22874  -0.19740
C          C       0.91336   0.48874   0.90657  -0.18724
C          C       0.87238   0.43535   0.00863  -0.19506
C          C       0.01617   0.68852   0.43163   0.59135
C          C       0.26107   0.76942   0.35342  -0.21311
C          C       0.47218   0.86445   0.28276  -0.20980
C          C       0.18377   0.71285   0.37804  -0.06607
C          C       0.92087   0.11009   0.99792  -0.06105
C          C       0.91172   0.42084   0.95096   0.26562
C          C       0.16470   0.90198   0.37829  -0.20528
C          C       0.25144   0.86394   0.35462   0.26662
C          C       0.38440   0.91937   0.17470  -0.05973
C          C       0.08740   0.84439   0.40183  -0.06210
C          C       0.73092   0.49960   0.50657   0.56376
C          C       0.96805   0.63452   0.61606   0.57838
C          C       0.66882   0.91353   0.47726  -0.01499
C          C       0.02177   0.62141   0.67421  -0.04411
C          C       0.68510   0.40698   0.49215  -0.02406
C          C       0.71376   0.82522   0.49090   0.53680
C          C       0.53231   0.30732   0.47993  -0.17691
C          C       0.59348   0.23992   0.45799   0.25877
C          C       0.74498   0.33815   0.46995  -0.07368
C          C       0.62876   0.92919   0.41985  -0.07499
C          C       0.66657   0.98127   0.52155  -0.07247
C          C       0.69970   0.25415   0.45365  -0.19196
C          C       0.40327   0.75035   0.90250  -0.03958
C          C       0.12134   0.59540   0.78215   0.24791
C          C       0.97826   0.64880   0.72832  -0.07311
C          C       0.16611   0.56813   0.72875  -0.19765
C          C       0.58665   0.01129   0.40658  -0.18707
C          C       0.62762   0.06469   0.50864  -0.19435
C          C       0.48381   0.81149   0.93162   0.59123
C          C       0.23890   0.73059   0.85342  -0.21305
C          C       0.02779   0.63556   0.78276  -0.20921
C          C       0.31620   0.78716   0.87804  -0.06592
C          C       0.57912   0.38992   0.49792  -0.06119
C          C       0.58828   0.07919   0.45096   0.26549
C          C       0.33525   0.59803   0.87830  -0.20581
C          C       0.24852   0.63606   0.85462   0.26652
C          C       0.11559   0.58064   0.67471  -0.05968
C          C       0.41255   0.65563   0.90183  -0.06221
O          O       0.32034   0.02284   0.01496  -0.59380
O          O       0.19281   0.25608   0.04196  -0.51266
O          O       0.27366   0.32254   0.96377  -0.49617
O          O       0.97259   0.39715   0.57236  -0.57416
O          O       0.37844   0.16314   0.88215  -0.51987
O          O       0.04517   0.65969   0.06320  -0.16154
O          O       0.51498   0.11814   0.93272  -0.60300
O          O       0.18138   0.05502   0.96365  -0.51080
O          O       0.05547   0.27268   0.54234  -0.55346
O          O       0.67030   0.07561   0.66381  -0.22350
O          O       0.17965   0.47716   0.51496  -0.59388
O          O       0.30716   0.24387   0.54195  -0.51281
O          O       0.22635   0.17746   0.46375  -0.49661
O          O       0.52744   0.10285   0.07236  -0.57433
O          O       0.12156   0.33689   0.38216  -0.52000
O          O       0.45483   0.84031   0.56320  -0.16183
O          O       0.98501   0.38188   0.43272  -0.60259
O          O       0.31862   0.44498   0.46365  -0.51128
O          O       0.44453   0.22733   0.04237  -0.55318
O          O       0.82975   0.42439   0.16380  -0.22317
O          O       0.67966   0.97717   0.98503  -0.59355
O          O       0.80718   0.74393   0.95804  -0.51210
O          O       0.72634   0.67747   0.03623  -0.49638
O          O       0.02741   0.60286   0.42764  -0.57446
O          O       0.62155   0.83687   0.11784  -0.52029
O          O       0.95483   0.34032   0.93680  -0.16145
O          O       0.48501   0.88187   0.06727  -0.60251
O          O       0.81862   0.94498   0.03635  -0.51141
O          O       0.94452   0.72733   0.45765  -0.55319
O          O       0.32970   0.92440   0.33619  -0.22335
O          O       0.82034   0.52285   0.48504  -0.59374
O          O       0.69284   0.75614   0.45804  -0.51285
O          O       0.77365   0.82255   0.53624  -0.49689
O          O       0.47256   0.89715   0.92763  -0.57386
O          O       0.87843   0.66311   0.61784  -0.51985
O          O       0.54517   0.15970   0.43680  -0.16133
O          O       0.01498   0.61813   0.56727  -0.60248
O          O       0.68138   0.55503   0.53635  -0.51108
O          O       0.55547   0.77268   0.95763  -0.55381
O          O       0.17024   0.57561   0.83620  -0.22364

