data_crystal

_audit_creation_method 'AiiDA-DDEC plugin'

_cell_length_a        10.08686
_cell_length_b        13.39911
_cell_length_c        22.39699

_cell_angle_alpha     105.74253
_cell_angle_beta     91.37470
_cell_angle_gamma     103.64820

_symmetry_space_group_name_Hall 'P 1'
_symmetry_space_group_name_H-M  'P 1'

loop_
_symmetry_equiv_pos_as_xyz
 'x,y,z'

loop_
_atom_site_label
_atom_site_type_symbol
_atom_site_fract_x
_atom_site_fract_y
_atom_site_fract_z
_atom_site_charge
Cu         Cu      0.06753   0.53384   0.27979   0.17835
Cu         Cu      0.40470   0.01536   0.04129   0.29772
Cu         Cu      0.94415   0.45849   0.72070   0.19379
Cu         Cu      0.59264   0.97455   0.95586   0.30412
Cu         Cu      0.43155   0.02378   0.51271   0.33839
Cu         Cu      0.96472   0.99292   0.49414   0.35145
H          H       0.31308   0.89388   0.12378   0.09038
H          H       0.40610   0.84800   0.21296   0.11646
H          H       0.79464   0.06158   0.20169   0.11043
H          H       0.68152   0.09974   0.11286   0.10131
H          H       0.60289   0.82707   0.34575   0.14236
H          H       0.46529   0.85080   0.30622   0.11884
H          H       0.70887   0.71403   0.35856   0.13065
H          H       0.90844   0.64639   0.36461   0.09167
H          H       0.86706   0.49751   0.17264   0.09016
H          H       0.66234   0.56196   0.15830   0.11824
H          H       0.23047   0.55340   0.39141   0.08869
H          H       0.44032   0.50335   0.41664   0.12973
H          H       0.47610   0.39552   0.21800   0.12003
H          H       0.26385   0.44591   0.20018   0.09162
H          H       0.63171   0.30301   0.23202   0.13351
H          H       0.71230   0.25999   0.28790   0.13066
H          H       0.67072   0.23465   0.38030   0.11976
H          H       0.65392   0.14870   0.46558   0.10433
H          H       0.28177   0.93842   0.38577   0.08026
H          H       0.29052   0.00663   0.29331   0.10213
H          H       0.13255   0.98730   0.99189   0.09645
H          H       0.01532   0.04751   0.91536   0.13202
H          H       0.40396   0.26646   0.90943   0.12258
H          H       0.50235   0.20008   0.99000   0.10200
H          H       0.91477   0.17150   0.79996   0.14057
H          H       0.91414   0.12927   0.86879   0.15931
H          H       0.04542   0.16720   0.72028   0.11344
H          H       0.07161   0.15215   0.60911   0.09733
H          H       0.91956   0.82250   0.55770   0.10136
H          H       0.89493   0.82107   0.66767   0.13029
H          H       0.58728   0.87142   0.45675  -0.01243
H          H       0.84009   0.26578   0.02473   0.00267
H          H       0.69287   0.09701   0.87627   0.09157
H          H       0.60838   0.14713   0.78685   0.11567
H          H       0.21423   0.93393   0.79124   0.10962
H          H       0.31980   0.89098   0.88030   0.10106
H          H       0.42379   0.17924   0.65514   0.15679
H          H       0.55694   0.15440   0.69733   0.12058
H          H       0.30438   0.27734   0.64548   0.13257
H          H       0.10387   0.34184   0.63663   0.10313
H          H       0.14610   0.50306   0.82732   0.09223
H          H       0.35276   0.44207   0.84396   0.12252
H          H       0.75919   0.42429   0.61145   0.09308
H          H       0.54723   0.47677   0.59165   0.13127
H          H       0.55618   0.61361   0.79142   0.12055
H          H       0.76766   0.55905   0.80353   0.09247
H          H       0.41025   0.70574   0.78098   0.13483
H          H       0.30929   0.74138   0.72875   0.12950
H          H       0.30532   0.75468   0.63527   0.11997
H          H       0.26841   0.84060   0.55423   0.09027
H          H       0.66185   0.03954   0.59249   0.10182
H          H       0.70980   0.97271   0.68154   0.10794
H          H       0.86507   0.00348   0.00252   0.09641
H          H       0.98691   0.94468   0.07816   0.13204
H          H       0.60184   0.72395   0.08709   0.12472
H          H       0.49847   0.78928   0.00725   0.10066
H          H       0.09786   0.82214   0.19038   0.13806
H          H       0.09108   0.86398   0.12174   0.15644
H          H      -0.00307   0.82128   0.27163   0.11795
H          H       0.97257   0.83378   0.38173   0.08623
H          H       0.05257   0.16483   0.43237   0.10398
H          H       0.07595   0.16802   0.32231   0.13196
H          H       0.27480   0.14943   0.47216  -0.01285
H          H       0.15505   0.72683   0.97669   0.00315
C          C       0.41852   0.93034   0.14348   0.06769
C          C       0.47212   0.90512   0.19339  -0.20897
C          C       0.60966   0.95285   0.21693   0.07859
C          C       0.68645   0.02428   0.18693  -0.19436
C          C       0.62506   0.04569   0.13733   0.07521
C          C       0.56264   0.82794   0.30002  -0.23725
C          C       0.66527   0.64634   0.25625   0.05431
C          C       0.73795   0.66737   0.31528  -0.19480
C          C       0.85252   0.62965   0.31940   0.05253
C          C       0.82876   0.54586   0.21227   0.00552
C          C       0.71380   0.58232   0.20485  -0.19184
C          C       0.28724   0.51764   0.35445   0.02452
C          C       0.40499   0.48951   0.36809  -0.17502
C          C       0.47799   0.44239   0.31977   0.05255
C          C       0.42487   0.42870   0.25798  -0.19855
C          C       0.30547   0.45717   0.24744   0.05038
C          C       0.62161   0.28646   0.27730  -0.24361
C          C       0.47848   0.13002   0.32929   0.08417
C          C       0.58282   0.16884   0.37874  -0.20208
C          C       0.57317   0.12267   0.42753   0.08897
C          C       0.36690   0.00327   0.38257   0.06936
C          C       0.37121   0.04237   0.33132  -0.18980
C          C       0.18787   0.05006   0.97289   0.08314
C          C       0.12378   0.08295   0.92893  -0.19638
C          C       0.20051   0.16167   0.90413   0.08762
C          C       0.33914   0.20603   0.92741  -0.18918
C          C       0.39496   0.16968   0.97204   0.07693
C          C       0.96467   0.12928   0.82573  -0.25377
C          C       0.96505   0.99477   0.70455   0.06506
C          C       0.01417   0.08849   0.68672  -0.20686
C          C       0.02914   0.08145   0.62433   0.08760
C          C       0.94902   0.89656   0.59555   0.07677
C          C       0.93457   0.89661   0.65703  -0.19723
C          C       0.70071   0.89533   0.46550   0.45203
C          C       0.78692   0.18222   0.99848   0.45422
C          C       0.58847   0.06156   0.85476   0.06716
C          C       0.53933   0.08946   0.80500  -0.20755
C          C       0.40271   0.04339   0.77967   0.07529
C          C       0.32206   0.97008   0.80743  -0.19210
C          C       0.37914   0.94593   0.85707   0.07795
C          C       0.45853   0.17594   0.70135  -0.24329
C          C       0.34777   0.35105   0.74695   0.06222
C          C       0.27466   0.32595   0.68784  -0.18471
C          C       0.15922   0.36223   0.68235   0.06270
C          C       0.18438   0.45257   0.78861   0.01953
C          C       0.30052   0.41830   0.79732  -0.19334
C          C       0.71147   0.46694   0.64981   0.02756
C          C       0.59289   0.49656   0.63925  -0.17331
C          C       0.53207   0.55251   0.68942   0.05526
C          C       0.59763   0.57340   0.74995  -0.20104
C          C       0.71666   0.54275   0.75732   0.04742
C          C       0.40262   0.71453   0.73383  -0.24576
C          C       0.51115   0.85818   0.66752   0.08433
C          C       0.38667   0.81952   0.62932  -0.20611
C          C       0.36587   0.86629   0.58275   0.07448
C          C       0.58410   0.97979   0.60550   0.08310
C          C       0.61105   0.94020   0.65412  -0.18502
C          C       0.81169   0.94055   0.02190   0.08192
C          C       0.87837   0.90848   0.06542  -0.19668
C          C       0.80411   0.82944   0.09069   0.08515
C          C       0.66489   0.78452   0.06866  -0.19129
C          C       0.60629   0.82016   0.02446   0.07938
C          C       0.04386   0.86331   0.16560  -0.25963
C          C       0.04106   0.99481   0.28639   0.06320
C          C       0.01203   0.90010   0.30456  -0.20620
C          C      -0.00127   0.90607   0.36683   0.07608
C          C       0.03978   0.09103   0.39474   0.08353
C          C       0.05300   0.09183   0.33333  -0.19518
C          C       0.26136   0.17185   0.52271   0.44307
C          C       0.21486   0.81111   0.99746   0.45281
S          S       0.69007   0.93231   0.28081   0.06660
S          S       0.51891   0.69164   0.24657  -0.02787
S          S       0.62854   0.40945   0.33898  -0.00143
S          S       0.46745   0.17841   0.26489   0.06625
S          S       0.93534   0.98945   0.78081   0.04932
S          S       0.14015   0.20892   0.84594   0.05549
S          S       0.32787   0.06897   0.71617   0.07680
S          S       0.49464   0.30762   0.75862  -0.00467
S          S       0.37849   0.58532   0.67524   0.00960
S          S       0.55372   0.81768   0.73168   0.05925
S          S       0.07021   0.00257   0.21063   0.05733
S          S       0.86888   0.78239   0.14795   0.05756
N          N       0.49175  -0.00061   0.11480  -0.21379
N          N       0.90298   0.56999   0.26942  -0.24030
N          N       0.23289   0.50124   0.29419  -0.23846
N          N       0.46487   0.04314   0.43150  -0.22715
N          N       0.32213   0.09064   0.99431  -0.21153
N          N       0.99523   0.98749   0.57827  -0.21246
N          N       0.51135   0.99093   0.88139  -0.21612
N          N       0.10944   0.42392   0.73154  -0.24073
N          N       0.77758   0.49021   0.70862  -0.23877
N          N       0.46164   0.94563   0.57013  -0.22138
N          N       0.67705   0.89891   0.00146  -0.21670
N          N       0.01344  -0.00060   0.41243  -0.22056
O          O       0.75330   0.99534   0.49103  -0.52911
O          O       0.76607   0.82398   0.44991  -0.54418
O          O       0.67521   0.14167   0.01837  -0.53220
O          O       0.84176   0.13624   0.95236  -0.55385
O          O       0.33975   0.14165   0.55716  -0.53501
O          O       0.17363   0.22278   0.54104  -0.52516
O          O       0.32345   0.84245   0.97290  -0.53490
O          O       0.16898   0.86762   0.04334  -0.54712

