data_crystal

_audit_creation_method 'AiiDA-DDEC plugin'

_cell_length_a        13.49645
_cell_length_b        14.49788
_cell_length_c        17.94456

_cell_angle_alpha     98.65956
_cell_angle_beta     111.76538
_cell_angle_gamma     90.06053

_symmetry_space_group_name_Hall 'P 1'
_symmetry_space_group_name_H-M  'P 1'

loop_
_symmetry_equiv_pos_as_xyz
 'x,y,z'

loop_
_atom_site_label
_atom_site_type_symbol
_atom_site_fract_x
_atom_site_fract_y
_atom_site_fract_z
_atom_site_charge
La         La      0.51066   0.03459   0.61363   1.93948
La         La      0.89817   0.46322   0.38598   1.93896
La         La      0.48934   0.96541   0.38637   1.93936
La         La      0.10183   0.53678   0.61402   1.93899
H          H       0.78475   0.19623   0.45720   0.13188
H          H       0.03686   0.29542   0.68668   0.11563
H          H       0.80973   0.07431   0.66743   0.12986
H          H       0.14784   0.21453   0.77040   0.11390
H          H       0.25509   0.18550   0.90705   0.10817
H          H       0.96931   0.09157   0.93474   0.10206
H          H       0.86144   0.12424   0.79933   0.11475
H          H       0.32776   0.08564   0.98163   0.10955
H          H       0.43219   0.02543   0.10880   0.11988
H          H       0.16550   0.05294   0.18406   0.11852
H          H       0.06273   0.11978   0.06070   0.11380
H          H       0.32578   0.30366   0.54382   0.13231
H          H       0.35170   0.20352   0.31442   0.11532
H          H       0.14341   0.42420   0.33301   0.12746
H          H       0.37759   0.28369   0.22822   0.11269
H          H       0.34800   0.31314   0.09130   0.10499
H          H       0.03581   0.40647   0.06642   0.10238
H          H       0.06338   0.37354   0.20189   0.11545
H          H       0.34619   0.41383   0.01667   0.10848
H          H       0.32290   0.47658   0.89017   0.12022
H          H       0.98241   0.44852   0.81778   0.11900
H          H       0.00355   0.37901   0.94038   0.11383
H          H       0.21525   0.80377   0.54279   0.13183
H          H       0.96314   0.70459   0.31332   0.11558
H          H       0.19027   0.92569   0.33257   0.12990
H          H       0.85216   0.78547   0.22960   0.11372
H          H       0.74491   0.81451   0.09295   0.10814
H          H       0.03069   0.90843   0.06525   0.10221
H          H       0.13856   0.87576   0.20067   0.11480
H          H       0.67224   0.91436   0.01837   0.10948
H          H       0.56781   0.97458   0.89120   0.11987
H          H       0.83450   0.94706   0.81593   0.11860
H          H       0.93727   0.88022   0.93930   0.11380
H          H       0.67422   0.69634   0.45618   0.13243
H          H       0.64830   0.79648   0.68558   0.11527
H          H       0.85659   0.57580   0.66699   0.12740
H          H       0.62241   0.71632   0.77178   0.11267
H          H       0.65200   0.68686   0.90870   0.10487
H          H       0.96419   0.59353   0.93358   0.10238
H          H       0.93662   0.62646   0.79811   0.11550
H          H       0.65381   0.58617   0.98333   0.10848
H          H       0.67710   0.52342   0.10983   0.12010
H          H       0.01759   0.55148   0.18221   0.11900
H          H       0.99645   0.62099   0.05962   0.11392
C          C       0.69149   0.06758   0.50678   0.61709
C          C       0.78740   0.12992   0.55809  -0.04014
C          C       0.82514   0.19316   0.52152  -0.09315
C          C       0.91418   0.25354   0.56906  -0.04856
C          C       0.96783   0.24740   0.65145  -0.11835
C          C       0.93344   0.18188   0.68830   0.06630
C          C       0.84012   0.12496   0.64086  -0.12587
C          C       0.95193   0.32630   0.53355   0.63967
C          C       0.99613   0.17076   0.77337   0.05894
C          C       0.10787   0.18876   0.80654  -0.12873
C          C       0.16897   0.17102   0.88392  -0.12964
C          C       0.12146   0.13424   0.93187   0.05458
C          C       0.00922   0.12021   0.89986  -0.12768
C          C       0.94781   0.13793   0.82244  -0.12842
C          C       0.18602   0.10529   0.01019   0.07978
C          C       0.29220   0.08035   0.02631  -0.14459
C          C       0.35082   0.04561   0.09689  -0.08900
C          C       0.30448   0.03314   0.15322  -0.04940
C          C       0.20017   0.06064   0.13930  -0.08660
C          C       0.14248   0.09700   0.06939  -0.13830
C          C       0.36398   0.98981   0.22557   0.55372
C          C       0.18353   0.43169   0.49349   0.61523
C          C       0.22896   0.36899   0.44255  -0.04161
C          C       0.30300   0.30618   0.47940  -0.09436
C          C       0.34580   0.24614   0.43220  -0.04285
C          C       0.31745   0.25161   0.34951  -0.12082
C          C       0.24593   0.31634   0.31220   0.06468
C          C       0.19975   0.37350   0.35965  -0.12286
C          C       0.42049   0.17486   0.46840   0.63772
C          C       0.22352   0.32707   0.22677   0.06280
C          C       0.30165   0.30931   0.19269  -0.12788
C          C       0.28532   0.32729   0.11513  -0.12785
C          C       0.19024   0.36409   0.06784   0.05423
C          C       0.11037   0.37778   0.10068  -0.12682
C          C       0.12642   0.35982   0.17825  -0.13161
C          C       0.17658   0.39384   0.98958   0.07980
C          C       0.26612   0.41950   0.97280  -0.14336
C          C       0.25393   0.45563   0.90261  -0.08895
C          C       0.15155   0.46887   0.84745  -0.04982
C          C       0.06165   0.44039   0.86179  -0.08692
C          C       0.07412   0.40253   0.93123  -0.13872
C          C       0.13894   0.51309   0.77548   0.55262
C          C       0.30851   0.93242   0.49322   0.61697
C          C       0.21260   0.87008   0.44190  -0.04022
C          C       0.17486   0.80684   0.47848  -0.09315
C          C       0.08582   0.74646   0.43094  -0.04850
C          C       0.03218   0.75260   0.34855  -0.11838
C          C       0.06656   0.81812   0.31170   0.06620
C          C       0.15988   0.87505   0.35914  -0.12564
C          C       0.04808   0.67370   0.46645   0.63979
C          C       0.00387   0.82924   0.22662   0.05902
C          C       0.89213   0.81124   0.19346  -0.12874
C          C       0.83103   0.82899   0.11608  -0.12971
C          C       0.87854   0.86576   0.06813   0.05476
C          C       0.99078   0.87979   0.10014  -0.12770
C          C       0.05219   0.86207   0.17756  -0.12850
C          C       0.81398   0.89471   0.98981   0.07973
C          C       0.70780   0.91965   0.97369  -0.14468
C          C       0.64918   0.95439   0.90311  -0.08897
C          C       0.69552   0.96686   0.84678  -0.04942
C          C       0.79983   0.93936   0.86070  -0.08648
C          C       0.85752   0.90301   0.93061  -0.13833
C          C       0.63602   0.01019   0.77443   0.55369
C          C       0.81648   0.56832   0.50651   0.61520
C          C       0.77104   0.63102   0.55745  -0.04153
C          C       0.69700   0.69382   0.52060  -0.09437
C          C       0.65420   0.75386   0.56780  -0.04288
C          C       0.68256   0.74839   0.65049  -0.12087
C          C       0.75407   0.68366   0.68780   0.06475
C          C       0.80025   0.62650   0.64035  -0.12293
C          C       0.57951   0.82514   0.53160   0.63776
C          C       0.77648   0.67293   0.77323   0.06286
C          C       0.69835   0.69069   0.80731  -0.12786
C          C       0.71468   0.67271   0.88487  -0.12779
C          C       0.80976   0.63591   0.93216   0.05405
C          C       0.88964   0.62222   0.89932  -0.12674
C          C       0.87358   0.64018   0.82175  -0.13160
C          C       0.82342   0.60616   0.01042   0.07981
C          C       0.73388   0.58050   0.02720  -0.14328
C          C       0.74607   0.54437   0.09739  -0.08897
C          C       0.84846   0.53113   0.15255  -0.04979
C          C       0.93835   0.55961   0.13821  -0.08691
C          C       0.92588   0.59747   0.06877  -0.13873
C          C       0.86107   0.48691   0.22452   0.55277
O          O       0.63076   0.03665   0.54033  -0.71425
O          O       0.66948   0.04634   0.43079  -0.58146
O          O       0.90041   0.33360   0.45884  -0.64893
O          O       0.03438   0.37850   0.58077  -0.63853
O          O       0.46426   0.97659   0.24436  -0.62699
O          O       0.31540   0.96771   0.27076  -0.62705
O          O       0.09027   0.46309   0.45957  -0.71207
O          O       0.23584   0.45325   0.56955  -0.58230
O          O       0.44128   0.16645   0.54273  -0.64868
O          O       0.45948   0.12490   0.42213  -0.64020
O          O       0.21985   0.52442   0.75528  -0.62440
O          O       0.04609   0.53739   0.73187  -0.62797
O          O       0.36924   0.96335   0.45967  -0.71404
O          O       0.33052   0.95367   0.56920  -0.58156
O          O       0.09959   0.66640   0.54116  -0.64902
O          O       0.96562   0.62150   0.41923  -0.63858
O          O       0.53574   0.02341   0.75564  -0.62711
O          O       0.68460   0.03229   0.72924  -0.62689
O          O       0.90973   0.53691   0.54043  -0.71209
O          O       0.76416   0.54675   0.43045  -0.58229
O          O       0.55872   0.83355   0.45727  -0.64862
O          O       0.54053   0.87510   0.57787  -0.64029
O          O       0.78015   0.47558   0.24472  -0.62454
O          O       0.95391   0.46261   0.26813  -0.62803

