data_crystal

_audit_creation_method 'AiiDA-DDEC plugin'

_cell_length_a        13.85234
_cell_length_b        18.01392
_cell_length_c        17.99644

_cell_angle_alpha     113.70471
_cell_angle_beta     104.83805
_cell_angle_gamma     104.86798

_symmetry_space_group_name_Hall 'P 1'
_symmetry_space_group_name_H-M  'P 1'

loop_
_symmetry_equiv_pos_as_xyz
 'x,y,z'

loop_
_atom_site_label
_atom_site_type_symbol
_atom_site_fract_x
_atom_site_fract_y
_atom_site_fract_z
_atom_site_charge
Cd         Cd      0.14923   0.59507   0.22695   0.84399
Cd         Cd      0.55360   0.63163   0.40501   0.84413
Cd         Cd      0.92181   0.77302   0.36835   0.84383
Cd         Cd      0.85077   0.40493   0.77304   0.84401
Cd         Cd      0.44640   0.36837   0.59499   0.84416
Cd         Cd      0.07820   0.22698   0.63165   0.84388
H          H       0.27561   0.50254   0.47095   0.14082
H          H       0.92536   0.42541   0.36490   0.13230
H          H       0.95173   0.50138   0.27784   0.10224
H          H       0.93647   0.29983   0.38089   0.13634
H          H       0.24592   0.51120   0.59341   0.14092
H          H       0.23382   0.42677   0.67256   0.10038
H          H       0.24948   0.44991   0.19045   0.09023
H          H       0.21511   0.29665   0.07884   0.12636
H          H       0.04552   0.21212   0.93644   0.10851
H          H       0.91761   0.28698   0.91302   0.12399
H          H       0.96487   0.43921   0.03050   0.10952
H          H       0.77264   0.96844   0.49757   0.14047
H          H       0.49937   0.93932   0.57467   0.13342
H          H       0.45002   0.77651   0.49882   0.10081
H          H       0.63707   0.08187   0.70089   0.13657
H          H       0.73456   0.08221   0.48893   0.14058
H          H       0.80682   0.24562   0.57336   0.10053
H          H       0.79884   0.74041   0.54985   0.08994
H          H       0.91820   0.78234   0.70323   0.12382
H          H       0.83326   0.72417   0.78761   0.10615
H          H       0.63040   0.62590   0.71270   0.12369
H          H       0.52479   0.59112   0.56047   0.10950
H          H       0.80473   0.52907   0.03147   0.14026
H          H       0.56091   0.63545   0.06135   0.13286
H          H       0.67506   0.72259   0.22418   0.10171
H          H       0.55517   0.61881   0.91875   0.13710
H          H       0.65178   0.40636   0.91739   0.14223
H          H       0.56122   0.32778   0.75387   0.09987
H          H       0.05900   0.80940   0.25980   0.08955
H          H       0.13601   0.92068   0.21774   0.12521
H          H       0.10887   0.06295   0.27575   0.10822
H          H       0.00435   0.08637   0.37414   0.12446
H          H       0.93409   0.96910   0.40904   0.10977
H          H       0.72440   0.49746   0.52905   0.14075
H          H       0.07464   0.57459   0.63509   0.13248
H          H       0.04827   0.49862   0.72216   0.10229
H          H       0.06354   0.70018   0.61910   0.13635
H          H       0.75408   0.48880   0.40659   0.14077
H          H       0.76618   0.57323   0.32744   0.10037
H          H       0.75053   0.55009   0.80955   0.09020
H          H       0.78489   0.70336   0.92116   0.12631
H          H       0.95448   0.78788   0.06356   0.10846
H          H       0.08240   0.71303   0.08698   0.12404
H          H       0.03513   0.56079   0.96950   0.10954
H          H       0.22737   0.03156   0.50242   0.14033
H          H       0.50064   0.06068   0.42533   0.13348
H          H       0.54998   0.22349   0.50118   0.10109
H          H       0.36293   0.91813   0.29911   0.13668
H          H       0.26545   0.91779   0.51107   0.14048
H          H       0.19318   0.75438   0.42663   0.10037
H          H       0.20116   0.25959   0.45014   0.08976
H          H       0.08181   0.21766   0.29677   0.12366
H          H       0.16674   0.27583   0.21239   0.10863
H          H       0.36961   0.37410   0.28730   0.12378
H          H       0.47521   0.40888   0.43953   0.10967
H          H       0.19527   0.47093   0.96853   0.14012
H          H       0.43909   0.36455   0.93864   0.13288
H          H       0.32495   0.27742   0.77582   0.10182
H          H       0.44484   0.38119   0.08125   0.13708
H          H       0.34822   0.59365   0.08261   0.14226
H          H       0.43878   0.67222   0.24613   0.09989
H          H       0.94101   0.19060   0.74020   0.08953
H          H       0.86399   0.07933   0.78226   0.12504
H          H       0.89113   0.93705   0.72425   0.10810
H          H       0.99566   0.91363   0.62586   0.12445
H          H       0.06591   0.03090   0.59096   0.10988
C          C       0.20793   0.53984   0.37788   0.10535
C          C       0.20100   0.50079   0.43024  -0.17415
C          C       0.09871   0.45768   0.42658   0.10577
C          C       0.00691   0.45708   0.37010  -0.16909
C          C       0.02101   0.49949   0.32128   0.09988
C          C       0.31748   0.58251   0.37815   0.52202
C          C       0.00526   0.28809   0.49422   0.09985
C          C       0.00375   0.33234   0.44574  -0.18888
C          C       0.09118   0.41316   0.47942   0.08809
C          C       0.17513   0.44902   0.56329  -0.17172
C          C       0.16923   0.40209   0.60835   0.10977
C          C       0.91541   0.19597   0.45554   0.51189
C          C       0.17700   0.41074   0.12806   0.06989
C          C       0.15705   0.32532   0.06566  -0.14807
C          C       0.06300   0.27888   0.98662  -0.04496
C          C       0.99233   0.31956   0.97284  -0.11985
C          C       0.01824   0.40541   0.03854   0.10004
C          C       0.66771   0.83795   0.46021   0.10553
C          C       0.69977   0.92939   0.49924  -0.17362
C          C       0.64068   0.96893   0.54248   0.10466
C          C       0.54947   0.91307   0.54309  -0.17015
C          C       0.52116   0.82184   0.50066   0.10075
C          C       0.73474   0.79543   0.41772   0.52331
C          C       0.71739   0.20650   0.71229   0.10129
C          C       0.67151   0.11379   0.66801  -0.18942
C          C       0.67780   0.06634   0.58704   0.08836
C          C       0.72601   0.11424   0.55119  -0.17072
C          C       0.76704   0.20623   0.59812   0.10687
C          C       0.72026   0.25992   0.80470   0.51127
C          C       0.76571   0.71721   0.58908   0.07118
C          C       0.83143   0.74036   0.67451  -0.14493
C          C       0.78385   0.70762   0.72086  -0.04230
C          C       0.67242   0.65315   0.68011  -0.12128
C          C       0.61213   0.63291   0.59430   0.10042
C          C       0.83077   0.62239   0.16202   0.10316
C          C       0.77093   0.56979   0.07055  -0.17251
C          C       0.67215   0.57336   0.03122   0.10467
C          C       0.63718   0.63000   0.08739  -0.16918
C          C       0.70050   0.67896   0.17859   0.09921
C          C       0.94039   0.62246   0.20443   0.52191
C          C       0.51066   0.50569   0.79367   0.10448
C          C       0.55767   0.55406   0.88648  -0.19193
C          C       0.61150   0.52053   0.93373   0.09007
C          C       0.61139   0.43668   0.88552  -0.17329
C          C       0.56080   0.39188   0.79345   0.10898
C          C       0.45925   0.54442   0.74043   0.51249
C          C       0.04888   0.87170   0.28296   0.07090
C          C       0.09123   0.93390   0.25975  -0.14708
C          C       0.07621   0.01287   0.29240  -0.04332
C          C       0.01930   0.02662   0.34692  -0.12170
C          C       0.97955   0.96112   0.36722   0.09946
C          C       0.79208   0.46017   0.62212   0.10539
C          C       0.79901   0.49922   0.56976  -0.17429
C          C       0.90130   0.54232   0.57342   0.10583
C          C       0.99309   0.54292   0.62990  -0.16901
C          C       0.97899   0.50051   0.67872   0.09992
C          C       0.68253   0.41749   0.62185   0.52199
C          C       0.99475   0.71191   0.50578   0.09984
C          C       0.99626   0.66767   0.55426  -0.18878
C          C       0.90883   0.58684   0.52058   0.08804
C          C       0.82487   0.55098   0.43671  -0.17165
C          C       0.83078   0.59791   0.39164   0.10966
C          C       0.08460   0.80403   0.54445   0.51153
C          C       0.82300   0.58926   0.87194   0.06993
C          C       0.84296   0.67468   0.93434  -0.14812
C          C       0.93701   0.72112   0.01338  -0.04487
C          C       0.00767   0.68045   0.02716  -0.11990
C          C       0.98176   0.59459   0.96146   0.10019
C          C       0.33229   0.16205   0.53979   0.10539
C          C       0.30023   0.07061   0.50076  -0.17370
C          C       0.35933   0.03107   0.45752   0.10471
C          C       0.45054   0.08694   0.45691  -0.17000
C          C       0.47885   0.17816   0.49934   0.10062
C          C       0.26526   0.20458   0.58228   0.52362
C          C       0.28261   0.79350   0.28771   0.10128
C          C       0.32849   0.88621   0.33199  -0.18929
C          C       0.32221   0.93367   0.41296   0.08838
C          C       0.27400   0.88576   0.44880  -0.17080
C          C       0.23297   0.79377   0.40188   0.10695
C          C       0.27974   0.74008   0.19530   0.51113
C          C       0.23430   0.28279   0.41092   0.07123
C          C       0.16858   0.25964   0.32549  -0.14526
C          C       0.21615   0.29238   0.27914  -0.04430
C          C       0.32758   0.34686   0.31989  -0.12133
C          C       0.38788   0.36709   0.40570   0.10059
C          C       0.16923   0.37761   0.83798   0.10312
C          C       0.22907   0.43021   0.92944  -0.17244
C          C       0.32785   0.42664   0.96878   0.10467
C          C       0.36283   0.37000   0.91261  -0.16898
C          C       0.29950   0.32104   0.82141   0.09915
C          C       0.05962   0.37755   0.79557   0.52190
C          C       0.48935   0.49431   0.20633   0.10446
C          C       0.44233   0.44594   0.11352  -0.19182
C          C       0.38850   0.47947   0.06627   0.09007
C          C       0.38862   0.56332   0.11448  -0.17334
C          C       0.43920   0.60812   0.20655   0.10904
C          C       0.54075   0.45558   0.25957   0.51233
C          C       0.95112   0.12830   0.71704   0.07082
C          C       0.90877   0.06610   0.74025  -0.14712
C          C       0.92380   0.98713   0.70760  -0.04342
C          C       0.98071   0.97338   0.65308  -0.12161
C          C       0.02046   0.03889   0.63278   0.09953
N          N       0.11935   0.53941   0.32413  -0.25477
N          N       0.08715   0.32298   0.57383  -0.25028
N          N       0.10889   0.45029   0.11493  -0.23284
N          N       0.57956   0.78471   0.46072  -0.25474
N          N       0.76421   0.25108   0.67729  -0.24907
N          N       0.65801   0.66449   0.54953  -0.23228
N          N       0.79597   0.67606   0.21549  -0.25256
N          N       0.51314   0.42625   0.74879  -0.25210
N          N       0.99394   0.88483   0.33574  -0.23223
N          N       0.88066   0.46059   0.67587  -0.25493
N          N       0.91285   0.67702   0.42617  -0.25008
N          N       0.89111   0.54971   0.88507  -0.23289
N          N       0.42045   0.21529   0.53928  -0.25461
N          N       0.23580   0.74892   0.32271  -0.24918
N          N       0.34199   0.33551   0.45047  -0.23249
N          N       0.20404   0.32394   0.78451  -0.25258
N          N       0.48687   0.57375   0.25121  -0.25218
N          N       0.00607   0.11517   0.66426  -0.23205
O          O       0.31995   0.60647   0.32132  -0.55671
O          O       0.40071   0.59001   0.43599  -0.53922
O          O       0.93346   0.15198   0.49539  -0.58365
O          O       0.83326   0.17069   0.38833  -0.53352
O          O       0.71415   0.71500   0.39500  -0.55821
O          O       0.80964   0.84531   0.40912  -0.53988
O          O       0.78108   0.34400   0.84827  -0.58364
O          O       0.66528   0.21759   0.83069  -0.53408
O          O      -0.00050   0.67899   0.28540  -0.55732
O          O       0.96595   0.56492   0.15382  -0.53798
O          O       0.43538   0.50378   0.65618  -0.58413
O          O       0.44591   0.61230   0.78300  -0.53466
O          O       0.68006   0.39353   0.67868  -0.55685
O          O       0.59930   0.40999   0.56400  -0.53918
O          O       0.06654   0.84803   0.50461  -0.58337
O          O       0.16674   0.82931   0.61167  -0.53331
O          O       0.28586   0.28500   0.60499  -0.55829
O          O       0.19037   0.15469   0.59088  -0.54023
O          O       0.21892   0.65600   0.15173  -0.58362
O          O       0.33473   0.78241   0.16931  -0.53380
O          O       0.00051   0.32101   0.71460  -0.55735
O          O       0.03405   0.43509   0.84618  -0.53800
O          O       0.56462   0.49623   0.34381  -0.58419
O          O       0.55409   0.38770   0.21699  -0.53449

