data_crystal

_audit_creation_method 'AiiDA-DDEC plugin'

_cell_length_a        13.71665
_cell_length_b        15.00738
_cell_length_c        14.99501

_cell_angle_alpha     84.61565
_cell_angle_beta     74.66782
_cell_angle_gamma     74.69110

_symmetry_space_group_name_Hall 'P 1'
_symmetry_space_group_name_H-M  'P 1'

loop_
_symmetry_equiv_pos_as_xyz
 'x,y,z'

loop_
_atom_site_label
_atom_site_type_symbol
_atom_site_fract_x
_atom_site_fract_y
_atom_site_fract_z
_atom_site_charge
Co         Co      0.49977   0.49999  -0.00000   0.79596
Co         Co      0.00075  -0.00031   0.49976   0.79658
Co         Co      0.75015   0.19877   0.80118   0.86755
Co         Co      0.24986   0.80106   0.19891   0.86804
H          H       0.83879   0.20001   0.60020   0.09248
H          H       0.77682   0.23885   0.45629   0.11909
H          H       0.29483   0.63693   0.99001   0.10518
H          H       0.49297   0.28212   0.29887   0.12426
H          H       0.36423   0.35136   0.03508   0.10562
H          H       0.53108   0.58433   0.16151   0.10081
H          H       0.47010   0.33164   0.14277   0.09636
H          H       0.47457   0.41803   0.47271   0.09899
H          H       0.60700   0.41450   0.42777   0.10209
H          H       0.10867   0.64516   0.00827   0.12904
H          H       0.46266   0.27028   0.62615   0.11935
H          H       0.55565   0.54540   0.32108   0.10819
H          H       0.53866   0.23512   0.76485   0.11594
H          H       0.50582   0.25130   0.45093   0.09871
H          H       0.63432   0.24464   0.38431   0.11011
H          H       0.17910   0.34927   0.05511   0.12760
H          H       0.99303   0.44168   0.09024   0.09799
H          H       0.96396   0.56382   0.08293   0.10081
H          H       0.66139   0.39937   0.79986   0.09192
H          H       0.72329   0.54325   0.76090   0.11937
H          H       0.20570   0.00912   0.36260   0.10584
H          H       0.00710   0.70082   0.71831   0.12370
H          H       0.13588   0.96435   0.64857   0.10585
H          H       0.96871   0.83826   0.41591   0.10080
H          H       0.02972   0.85694   0.66888   0.09667
H          H       0.02567   0.52735   0.58193   0.09956
H          H       0.89317   0.57214   0.58541   0.10220
H          H       0.39160   0.99152   0.35445   0.12932
H          H       0.03743   0.37404   0.72963   0.11932
H          H       0.94424   0.67874   0.45490   0.10844
H          H       0.96161   0.23526   0.76479   0.11575
H          H       0.99412   0.54886   0.74895   0.09822
H          H       0.86557   0.61536   0.75556   0.10992
H          H       0.32089   0.94486   0.65075   0.12746
H          H       0.50694   0.91000   0.55831   0.09782
H          H       0.53621   0.91721   0.43600   0.10084
H          H       0.16123   0.79917   0.39989   0.09230
H          H       0.22342   0.76086   0.54373   0.11856
H          H       0.70487   0.36299   0.00990   0.10529
H          H       0.50721   0.71775   0.70097   0.12421
H          H       0.63548   0.64847   0.96472   0.10542
H          H       0.46892   0.41556   0.83824   0.10091
H          H       0.52985   0.66819   0.85715   0.09625
H          H       0.52531   0.58209   0.52709   0.09902
H          H       0.39290   0.58562   0.57212   0.10193
H          H       0.89094   0.35482   0.99182   0.12984
H          H       0.53736   0.72966   0.37384   0.11920
H          H       0.44441   0.45456   0.67867   0.10811
H          H       0.46139   0.76452   0.23506   0.11571
H          H       0.49409   0.74886   0.54918   0.09846
H          H       0.36553   0.75539   0.61564   0.10986
H          H       0.82052   0.65069   0.94482   0.12796
H          H       0.00661   0.55833   0.90990   0.09837
H          H       0.03574   0.43623   0.91717   0.10088
H          H       0.33885   0.59942   0.20027   0.09160
H          H       0.27686   0.45557   0.23881   0.11899
H          H       0.79527   0.99008   0.63677   0.10510
H          H       0.99362   0.29804   0.28149   0.12345
H          H       0.86470   0.03522   0.35092   0.10549
H          H       0.03105   0.16068   0.58408   0.10039
H          H       0.97187   0.14170   0.33046   0.09725
H          H       0.97414   0.47184   0.41800   0.09973
H          H       0.10657   0.42709   0.41465   0.10159
H          H       0.60910   0.00835   0.64507   0.13007
H          H       0.96285   0.62498   0.27005   0.11949
H          H       0.05463   0.32047   0.54569   0.10712
H          H       0.03880   0.76365   0.23517   0.11562
H          H       0.00569   0.45042   0.25104   0.09804
H          H       0.13416   0.38355   0.24441   0.11233
H          H       0.67957   0.05520   0.34884   0.12797
H          H       0.49350   0.09009   0.44137   0.09874
H          H       0.46430   0.08287   0.56364   0.10061
C          C       0.75607   0.21938   0.60276   0.09354
C          C       0.72044   0.24021   0.52294  -0.18660
C          C       0.52699   0.40948   0.32497   0.14862
C          C       0.26702   0.57413   0.00480   0.08880
C          C       0.61352   0.25872   0.52875   0.15361
C          C       0.50153   0.35048   0.27278  -0.19398
C          C       0.30510   0.41554   0.03069   0.07253
C          C       0.52380   0.51805   0.19515   0.08620
C          C       0.48847   0.37796   0.18418   0.09925
C          C       0.54474   0.38433   0.42045  -0.18935
C          C       0.16214   0.57824   0.01482  -0.19555
C          C       0.12648   0.49765   0.03489   0.14278
C          C       0.54657   0.25727   0.61728  -0.20689
C          C       0.53703   0.49567   0.28393  -0.21266
C          C       0.58720   0.23726   0.69467   0.09169
C          C       0.57376   0.27975   0.44277  -0.20823
C          C       0.20111   0.41483   0.04113  -0.20291
C          C       0.01309   0.50070   0.04701  -0.20009
C          C       0.74410   0.39695   0.78042   0.09573
C          C       0.77967   0.47673   0.75962  -0.18828
C          C       0.97304   0.67489   0.59078   0.14717
C          C       0.23334   0.99461   0.42554   0.08788
C          C       0.88655   0.47109   0.74122   0.15380
C          C      -0.00158   0.72697   0.64994  -0.19321
C          C       0.19507   0.96881   0.58433   0.07143
C          C       0.97606   0.80466   0.48224   0.08605
C          C       0.01140   0.81554   0.62249   0.09874
C          C       0.95538   0.57944   0.61571  -0.19040
C          C       0.33813   0.98488   0.42146  -0.19548
C          C       0.37367   0.96497   0.50217   0.14199
C          C       0.95355   0.38272   0.74264  -0.20714
C          C       0.96289   0.71594   0.50458  -0.21179
C          C       0.91301   0.30532   0.76260   0.09234
C          C       0.92624   0.55705   0.72037  -0.20687
C          C       0.29900   0.95866   0.58508  -0.20169
C          C       0.48700   0.95308   0.49916  -0.19994
C          C       0.24399   0.78000   0.39722   0.09356
C          C       0.27967   0.75944   0.47701  -0.18620
C          C       0.47313   0.59044   0.67486   0.14834
C          C       0.73267   0.42579   0.99513   0.08875
C          C       0.38656   0.74122   0.47119   0.15300
C          C       0.49860   0.64941   0.72705  -0.19370
C          C       0.69460   0.58434   0.96913   0.07308
C          C       0.47616   0.48185   0.80465   0.08629
C          C       0.51149   0.62192   0.81569   0.09909
C          C       0.45523   0.61572   0.57946  -0.18964
C          C       0.83751   0.42173   0.98516  -0.19712
C          C       0.87316   0.50231   0.96510   0.14143
C          C       0.45349   0.74254   0.38264  -0.20665
C          C       0.46303   0.50425   0.71586  -0.21218
C          C       0.41283   0.76234   0.30524   0.09176
C          C       0.42622   0.72033   0.55723  -0.20740
C          C       0.79855   0.58512   0.95878  -0.20223
C          C       0.98650   0.49931   0.95308  -0.19963
C          C       0.25612   0.60199   0.21960   0.09503
C          C       0.22051   0.52217   0.24027  -0.18719
C          C       0.02681   0.32423   0.40936   0.14815
C          C       0.76747   0.00480   0.57390   0.08781
C          C       0.11361   0.52782   0.25870   0.15348
C          C       0.00204   0.27199   0.34994  -0.19337
C          C       0.80556   0.03073   0.41515   0.07440
C          C       0.02393   0.19433   0.51773   0.08759
C          C       0.98952   0.18326   0.37712   0.09794
C          C       0.04442   0.41968   0.38434  -0.19092
C          C       0.66258   0.01491   0.57806  -0.19681
C          C       0.62692   0.03500   0.49741   0.14247
C          C       0.04673   0.61625   0.25723  -0.21008
C          C       0.03661   0.28322   0.49566  -0.21153
C          C       0.08738   0.69361   0.23736   0.09278
C          C       0.07365   0.44197   0.27961  -0.20810
C          C       0.70156   0.04120   0.41446  -0.20378
C          C       0.51355   0.04700   0.50049  -0.20012
S          S       0.57998   0.26425   0.97920   1.37278
S          S       0.92022   0.02066   0.73571   1.37274
S          S       0.41957   0.73572   0.02081   1.37144
S          S       0.08118   0.97833   0.26413   1.37305
N          N       0.49968   0.46041   0.14471  -0.24333
N          N       0.33813   0.49418   0.01414  -0.25198
N          N       0.69102   0.21801   0.68779  -0.25321
N          N       0.00023   0.85499   0.53996  -0.24267
N          N       0.16221   0.98513   0.50555  -0.25224
N          N       0.80923   0.31205   0.78182  -0.25470
N          N       0.50024   0.53948   0.85513  -0.24347
N          N       0.66159   0.50569   0.98565  -0.25232
N          N       0.30900   0.78146   0.31217  -0.25232
N          N       0.00051   0.14382   0.45970  -0.24354
N          N       0.83857   0.01418   0.49386  -0.25214
N          N       0.19115   0.68699   0.21826  -0.25450
O          O       0.61580   0.21422   0.88508  -0.65822
O          O       0.55740   0.36757   0.95058  -0.70191
O          O       0.66544   0.24083   0.02629  -0.62275
O          O       0.48289   0.24017   0.03187  -0.60586
O          O       0.88449   0.11467   0.78582  -0.65868
O          O       0.94274   0.04923   0.63226  -0.70188
O          O       0.83459   0.97375   0.75914  -0.62321
O          O       0.01721   0.96803   0.75990  -0.60550
O          O       0.38369   0.78583   0.11487  -0.65715
O          O       0.44231   0.63236   0.04928  -0.70145
O          O       0.33401   0.75909   0.97387  -0.62255
O          O       0.51665   0.75983   0.96828  -0.60539
O          O       0.11508   0.88422   0.21453  -0.65791
O          O       0.05760   0.95072   0.36769  -0.70221
O          O       0.16874   0.02286   0.24039  -0.62349
O          O       0.98493   0.03260   0.23981  -0.60449

