data_crystal

_audit_creation_method 'AiiDA-DDEC plugin'

_cell_length_a         9.33891
_cell_length_b         9.99534
_cell_length_c        24.08083

_cell_angle_alpha     90.00000
_cell_angle_beta     90.00000
_cell_angle_gamma     90.00000

_symmetry_space_group_name_Hall 'P 1'
_symmetry_space_group_name_H-M  'P 1'

loop_
_symmetry_equiv_pos_as_xyz
 'x,y,z'

loop_
_atom_site_label
_atom_site_type_symbol
_atom_site_fract_x
_atom_site_fract_y
_atom_site_fract_z
_atom_site_charge
Zn         Zn      0.49541   0.88440   0.97917   0.92511
Zn         Zn      0.36961   0.87747   0.50776   0.93773
Zn         Zn      0.00459   0.11561   0.47917   0.92527
Zn         Zn      0.13039   0.12253   0.00776   0.93750
Zn         Zn      0.50459   0.38440   0.52083   0.92534
Zn         Zn      0.63040   0.37747   0.99224   0.93746
Zn         Zn      0.99541   0.61561   0.02083   0.92525
Zn         Zn      0.86961   0.62253   0.49224   0.93755
P          P       0.72395   0.65840   0.94180   1.17539
P          P       0.41862   0.16580   0.93316   1.15824
P          P       0.77605   0.34160   0.44181   1.17517
P          P       0.08138   0.83421   0.43316   1.15825
P          P       0.27605   0.15840   0.55819   1.17539
P          P       0.58138   0.66580   0.56684   1.15801
P          P       0.22395   0.84160   0.05819   1.17530
P          P       0.91862   0.33420   0.06684   1.15806
H          H       0.76890   0.84612   0.04497   0.11308
H          H       0.87172   0.93507   0.13305   0.13600
H          H       0.51204   0.20772   0.14099   0.12310
H          H       0.42554   0.10903   0.05276   0.09306
H          H       0.86375   0.11220   0.20576   0.10936
H          H       0.73191   0.23876   0.20238   0.10385
H          H       0.55140   0.07733   0.24426   0.08574
H          H       0.68766   0.95750   0.25140   0.09178
H          H       0.69065   0.23825   0.30388   0.10505
H          H       0.82801   0.11910   0.31236   0.11788
H          H       0.81687   0.96567   0.38914   0.13348
H          H       0.67853   0.86900   0.46770   0.11149
H          H       0.30515   0.06057   0.41719   0.10307
H          H       0.42912   0.16501   0.33647   0.12308
H          H       0.81030   0.68367   0.89519  -0.12017
H          H       0.38094   0.21927   0.88123  -0.11214
H          H       0.73111   0.15389   0.54497   0.11312
H          H       0.62829   0.06493   0.63305   0.13593
H          H       0.98797   0.79228   0.64099   0.12309
H          H       0.07446   0.89097   0.55276   0.09312
H          H       0.63625   0.88780   0.70576   0.10929
H          H       0.76809   0.76124   0.70237   0.10381
H          H       0.94861   0.92267   0.74426   0.08582
H          H       0.81235   0.04250   0.75140   0.09183
H          H       0.80935   0.76176   0.80388   0.10502
H          H       0.67199   0.88091   0.81236   0.11784
H          H       0.68313   0.03433   0.88913   0.13336
H          H       0.82147   0.13101   0.96770   0.11147
H          H       0.19485   0.93943   0.91719   0.10306
H          H       0.07088   0.83499   0.83647   0.12306
H          H       0.68970   0.31633   0.39519  -0.12027
H          H       0.11906   0.78074   0.38123  -0.11221
H          H       0.23111   0.34611   0.45503   0.11305
H          H       0.12828   0.43507   0.36695   0.13598
H          H       0.48796   0.70772   0.35901   0.12313
H          H       0.57446   0.60903   0.44724   0.09306
H          H       0.13625   0.61220   0.29424   0.10928
H          H       0.26809   0.73876   0.29762   0.10390
H          H       0.44860   0.57733   0.25574   0.08575
H          H       0.31234   0.45750   0.24860   0.09174
H          H       0.30935   0.73825   0.19612   0.10511
H          H       0.17199   0.61910   0.18763   0.11785
H          H       0.18313   0.46567   0.11086   0.13339
H          H       0.32147   0.36899   0.03230   0.11155
H          H       0.69485   0.56058   0.08281   0.10313
H          H       0.57088   0.66501   0.16353   0.12310
H          H       0.18970   0.18367   0.60481  -0.12040
H          H       0.61906   0.71927   0.61877  -0.11225
H          H       0.26890   0.65389   0.95502   0.11303
H          H       0.37172   0.56493   0.86695   0.13610
H          H       0.01204   0.29228   0.85901   0.12309
H          H       0.92555   0.39097   0.94723   0.09290
H          H       0.36375   0.38780   0.79424   0.10940
H          H       0.23191   0.26124   0.79762   0.10387
H          H       0.05140   0.42267   0.75574   0.08566
H          H       0.18766   0.54250   0.74860   0.09181
H          H       0.19065   0.26176   0.69612   0.10507
H          H       0.32801   0.38090   0.68763   0.11800
H          H       0.31687   0.53433   0.61086   0.13342
H          H       0.17853   0.63101   0.53230   0.11153
H          H       0.80515   0.43943   0.58281   0.10315
H          H       0.92913   0.33499   0.66352   0.12294
H          H       0.31030   0.81633   0.10481  -0.12034
H          H       0.88094   0.28073   0.11877  -0.11221
C          C       0.71571   0.92559   0.06818   0.09449
C          C       0.77081   0.97546   0.11772  -0.18883
C          C       0.69763   0.07680   0.14617   0.16214
C          C       0.57192   0.12636   0.12189  -0.19069
C          C       0.52288   0.07264   0.07230   0.10101
C          C       0.74823   0.12981   0.20123  -0.20947
C          C       0.66742   0.06582   0.25042  -0.13786
C          C       0.71215   0.13009   0.30596  -0.21081
C          C       0.63391   0.07158   0.35490   0.16623
C          C       0.70318   0.98787   0.39294  -0.18071
C          C       0.62740   0.93462   0.43749   0.09849
C          C       0.41834   0.04231   0.40921   0.08814
C          C       0.48832   0.09861   0.36403  -0.20107
C          C       0.78429   0.07441   0.56817   0.09447
C          C       0.72919   0.02454   0.61772  -0.18884
C          C       0.80238   0.92320   0.64617   0.16222
C          C       0.92808   0.87364   0.62189  -0.19080
C          C       0.97712   0.92737   0.57230   0.10101
C          C       0.75177   0.87020   0.70123  -0.20959
C          C       0.83258   0.93419   0.75042  -0.13778
C          C       0.78786   0.86991   0.80596  -0.21095
C          C       0.86609   0.92842   0.85490   0.16620
C          C       0.79683   0.01213   0.89294  -0.18061
C          C       0.87260   0.06538   0.93749   0.09850
C          C       0.08166   0.95769   0.90921   0.08814
C          C       0.01168   0.90139   0.86402  -0.20086
C          C       0.28429   0.42559   0.43182   0.09463
C          C       0.22919   0.47546   0.38228  -0.18887
C          C       0.30238   0.57681   0.35383   0.16206
C          C       0.42808   0.62636   0.37811  -0.19054
C          C       0.47712   0.57264   0.42770   0.10103
C          C       0.25177   0.62981   0.29877  -0.20947
C          C       0.33258   0.56582   0.24958  -0.13778
C          C       0.28786   0.63010   0.19404  -0.21087
C          C       0.36609   0.57159   0.14510   0.16614
C          C       0.29682   0.48787   0.10706  -0.18065
C          C       0.37260   0.43462   0.06250   0.09849
C          C       0.58166   0.54231   0.09079   0.08814
C          C       0.51168   0.59861   0.13597  -0.20108
C          C       0.21571   0.57441   0.93182   0.09479
C          C       0.27081   0.52454   0.88228  -0.18889
C          C       0.19763   0.42320   0.85383   0.16217
C          C       0.07192   0.37364   0.87811  -0.19062
C          C       0.02288   0.42736   0.92769   0.10122
C          C       0.24823   0.37020   0.79877  -0.20970
C          C       0.16742   0.43419   0.74958  -0.13768
C          C       0.21215   0.36991   0.69404  -0.21112
C          C       0.13391   0.42842   0.64510   0.16621
C          C       0.20318   0.51214   0.60705  -0.18065
C          C       0.12740   0.56538   0.56250   0.09859
C          C       0.91835   0.45769   0.59079   0.08773
C          C       0.98832   0.40139   0.63597  -0.20088
N          N       0.59226   0.97211   0.04600  -0.25907
N          N       0.48656   0.96043   0.44542  -0.26199
N          N       0.90774   0.02790   0.54600  -0.25884
N          N       0.01344   0.03957   0.94542  -0.26208
N          N       0.40774   0.47211   0.45400  -0.25927
N          N       0.51345   0.46043   0.05458  -0.26201
N          N       0.09226   0.52790   0.95400  -0.25950
N          N       0.98656   0.53958   0.55457  -0.26163
O          O       0.59330   0.75104   0.93583  -0.71739
O          O       0.42894   0.01379   0.92239  -0.72111
O          O       0.81352   0.69305   0.99389  -0.74452
O          O       0.68599   0.50911   0.93622  -0.74028
O          O       0.30048   0.20675   0.97449  -0.74103
O          O       0.56422   0.22564   0.94942  -0.71943
O          O       0.90670   0.24897   0.43583  -0.71734
O          O       0.07106   0.98621   0.42239  -0.72121
O          O       0.68648   0.30696   0.49389  -0.74448
O          O       0.81402   0.49089   0.43622  -0.74017
O          O       0.19952   0.79325   0.47450  -0.74095
O          O       0.93578   0.77437   0.44942  -0.71950
O          O       0.40670   0.25104   0.56417  -0.71746
O          O       0.57106   0.51380   0.57761  -0.72144
O          O       0.18648   0.19305   0.50611  -0.74439
O          O       0.31402   0.00911   0.56377  -0.74043
O          O       0.69952   0.70675   0.52550  -0.74070
O          O       0.43578   0.72564   0.55057  -0.71946
O          O       0.09330   0.74897   0.06417  -0.71749
O          O       0.92894   0.48621   0.07761  -0.72127
O          O       0.31352   0.80696   0.00611  -0.74449
O          O       0.18598   0.99089   0.06378  -0.74020
O          O       0.80048   0.29325   0.02550  -0.74087
O          O       0.06422   0.27437   0.05057  -0.71939

