data_crystal

_audit_creation_method 'AiiDA-DDEC plugin'

_cell_length_a        10.32170
_cell_length_b        14.98434
_cell_length_c        14.97021

_cell_angle_alpha     114.87718
_cell_angle_beta     110.22094
_cell_angle_gamma     90.01813

_symmetry_space_group_name_Hall 'P 1'
_symmetry_space_group_name_H-M  'P 1'

loop_
_symmetry_equiv_pos_as_xyz
 'x,y,z'

loop_
_atom_site_label
_atom_site_type_symbol
_atom_site_fract_x
_atom_site_fract_y
_atom_site_fract_z
_atom_site_charge
Zn         Zn      0.42750   0.53502   0.58025   0.87956
Zn         Zn      0.84632   0.96539   0.42011   0.87943
Zn         Zn      0.57249   0.46499   0.41974   0.87950
Zn         Zn      0.15367   0.03462   0.57989   0.87938
H          H       0.77409   0.76241   0.54436   0.12823
H          H       0.04795   0.00749   0.83461   0.14699
H          H       0.76457   0.80030   0.84285   0.14284
H          H       0.92349   0.57480   0.71682   0.09781
H          H       0.00794   0.68787   0.73702   0.09150
H          H       0.33998   0.41339   0.68187   0.12796
H          H       0.27500   0.70902   0.63508   0.12493
H          H       0.16975   0.75400   0.71047   0.10424
H          H       0.12907   0.45384   0.76186   0.12253
H          H       0.06735   0.60025   0.47386   0.12228
H          H       0.03429   0.72466   0.52368   0.12807
H          H       0.95534   0.63459   0.54568   0.12235
H          H       0.99219   0.70101   0.90470   0.10220
H          H       0.08231   0.60047   0.89728   0.07866
H          H       0.20685   0.80185   0.92707   0.08600
H          H       0.29162   0.69752   0.90649   0.09142
H          H       0.22831   0.73732   0.45562   0.12823
H          H       0.21223   0.49240   0.16575   0.14769
H          H       0.92110   0.69966   0.15657   0.14251
H          H       0.20525   0.92473   0.28238   0.09836
H          H       0.26994   0.81179   0.26240   0.09175
H          H       0.65758   0.08704   0.31877   0.12802
H          H       0.63910   0.79110   0.36472   0.12389
H          H       0.45821   0.74620   0.28963   0.10400
H          H       0.36640   0.04615   0.23786   0.12323
H          H       0.59338   0.89974   0.52625   0.12227
H          H       0.51077   0.77523   0.47648   0.12807
H          H       0.40929   0.86509   0.45447   0.12335
H          H       0.08674   0.79817   0.09442   0.10186
H          H       0.18387   0.89893   0.10183   0.07896
H          H       0.27972   0.69819   0.07308   0.08528
H          H       0.38485   0.80275   0.09393   0.09159
H          H       0.22590   0.23759   0.45564   0.12812
H          H       0.95204   0.99252   0.16539   0.14694
H          H       0.23542   0.19970   0.15715   0.14289
H          H       0.07650   0.42521   0.28318   0.09786
H          H       0.99205   0.31214   0.26298   0.09118
H          H       0.66002   0.58662   0.31813   0.12814
H          H       0.72499   0.29099   0.36492   0.12492
H          H       0.83024   0.24601   0.28953   0.10415
H          H       0.87093   0.54616   0.23813   0.12265
H          H       0.93265   0.39976   0.52614   0.12241
H          H       0.96571   0.27535   0.47632   0.12772
H          H       0.04465   0.36542   0.45432   0.12242
H          H       0.00780   0.29900   0.09530   0.10198
H          H       0.91768   0.39953   0.10272   0.07900
H          H       0.79314   0.19816   0.07293   0.08564
H          H       0.70838   0.30249   0.09351   0.09159
H          H       0.77169   0.26269   0.54438   0.12832
H          H       0.78776   0.50761   0.83424   0.14801
H          H       0.07890   0.30035   0.84342   0.14228
H          H       0.79474   0.07528   0.71761   0.09821
H          H       0.73005   0.18822   0.73759   0.09198
H          H       0.34242   0.91297   0.68122   0.12774
H          H       0.36090   0.20891   0.63528   0.12403
H          H       0.54179   0.25381   0.71036   0.10405
H          H       0.63359   0.95386   0.76213   0.12306
H          H       0.40661   0.10027   0.47374   0.12225
H          H       0.48922   0.22478   0.52351   0.12836
H          H       0.59070   0.13491   0.54553   0.12316
H          H       0.91326   0.20184   0.90558   0.10183
H          H       0.81612   0.10108   0.89817   0.07873
H          H       0.72027   0.30181   0.92692   0.08551
H          H       0.61515   0.19725   0.90606   0.09161
C          C       0.91301   0.88994   0.68384  -0.01956
C          C       0.81303   0.80351   0.63059  -0.10232
C          C       0.76211   0.76975   0.68805  -0.01888
C          C       0.95819   0.92908   0.61999   0.57934
C          C       0.65645   0.67494   0.62825   0.57887
C          C       0.96750   0.94235   0.79524  -0.17237
C          C       0.80855   0.82403   0.79857  -0.16347
C          C       0.20213   0.60394   0.67272   0.27752
C          C       0.91269   0.90982   0.85259   0.09283
C          C       0.02387   0.62616   0.75843  -0.06842
C          C       0.27661   0.47157   0.68820  -0.02765
C          C       0.17996   0.68844   0.64435  -0.20166
C          C       0.17313   0.49087   0.72792  -0.11426
C          C       0.05118   0.66029   0.54089  -0.36954
C          C       0.07416   0.66454   0.87911  -0.18326
C          C       0.21591   0.73465   0.94003  -0.15050
C          C       0.22784   0.60980   0.31643  -0.01962
C          C       0.18109   0.69614   0.36940  -0.10254
C          C       0.07288   0.72994   0.31174  -0.01756
C          C       0.33704   0.57096   0.38060   0.58015
C          C       0.02850   0.82516   0.37209   0.57782
C          C       0.17113   0.55746   0.20502  -0.17494
C          C       0.00890   0.67576   0.20119  -0.16441
C          C       0.52850   0.89626   0.32747   0.28229
C          C       0.05931   0.59005   0.14740   0.09447
C          C       0.26435   0.87359   0.24108  -0.06732
C          C       0.58771   0.02885   0.31233  -0.02475
C          C       0.53483   0.81170   0.35575  -0.20100
C          C       0.44433   0.00920   0.27203  -0.11074
C          C       0.51006   0.83961   0.45926  -0.37016
C          C       0.19424   0.83506   0.12033  -0.18044
C          C       0.27560   0.76528   0.05993  -0.15204
C          C       0.08698   0.11007   0.31615  -0.01963
C          C       0.18696   0.19650   0.36941  -0.10233
C          C       0.23788   0.23026   0.31195  -0.01876
C          C       0.04182   0.07093   0.38002   0.57939
C          C       0.34354   0.32507   0.37175   0.57880
C          C       0.03250   0.05766   0.20476  -0.17234
C          C       0.19144   0.17598   0.20143  -0.16337
C          C       0.79786   0.39607   0.32728   0.27728
C          C       0.08730   0.09018   0.14741   0.09277
C          C       0.97613   0.37385   0.24156  -0.06837
C          C       0.72338   0.52844   0.31180  -0.02738
C          C       0.82003   0.31157   0.35564  -0.20165
C          C       0.82686   0.50913   0.27208  -0.11404
C          C       0.94881   0.33971   0.45911  -0.36954
C          C       0.92583   0.33547   0.12089  -0.18328
C          C       0.78409   0.26536   0.05997  -0.15051
C          C       0.77216   0.39021   0.68357  -0.01947
C          C       0.81891   0.30387   0.63060  -0.10263
C          C       0.92712   0.27007   0.68825  -0.01751
C          C       0.66295   0.42905   0.61941   0.57993
C          C       0.97151   0.17485   0.62792   0.57830
C          C       0.82886   0.44254   0.79498  -0.17514
C          C       0.99110   0.32425   0.79881  -0.16477
C          C       0.47149   0.10375   0.67253   0.28222
C          C       0.94069   0.40995   0.85260   0.09481
C          C       0.73564   0.12642   0.75892  -0.06732
C          C       0.41228   0.97116   0.68766  -0.02459
C          C       0.46516   0.18831   0.64425  -0.20085
C          C       0.55566   0.99081   0.72797  -0.11121
C          C       0.48994   0.16040   0.54074  -0.37023
C          C       0.80575   0.16494   0.87967  -0.18057
C          C       0.72439   0.23473   0.94007  -0.15177
N          N       0.29341   0.54167   0.65363  -0.33415
N          N       0.12635   0.57411   0.71732   0.01275
N          N       0.94747   0.95972   0.96733   0.25864
N          N       0.63898   0.95860   0.34672  -0.33650
N          N       0.40806   0.92596   0.28264   0.00130
N          N       0.98090   0.54089   0.03242   0.25962
N          N       0.70658   0.45833   0.34637  -0.33401
N          N       0.87365   0.42590   0.28268   0.01248
N          N       0.05253   0.04028   0.03267   0.25866
N          N       0.36102   0.04140   0.65327  -0.33630
N          N       0.59194   0.07405   0.71736   0.00153
N          N       0.01910   0.45912   0.96758   0.25966
O          O       0.57107   0.66573   0.66928  -0.53310
O          O       0.08399   0.97302   0.65950  -0.53046
O          O       0.86261   0.91458   0.53172  -0.55850
O          O       0.66325   0.61252   0.54113  -0.57191
O          O       0.87618   0.92651   0.00464  -0.37940
O          O       0.90177   0.83470   0.33236  -0.53355
O          O       0.42277   0.52668   0.34089  -0.52979
O          O       0.33045   0.58592   0.46915  -0.55795
O          O       0.12398   0.88735   0.45842  -0.56904
O          O       0.87545   0.57631   0.99428  -0.37981
O          O       0.42893   0.33427   0.33072  -0.53323
O          O       0.91600   0.02699   0.34050  -0.53044
O          O       0.13738   0.08543   0.46827  -0.55850
O          O       0.33675   0.38748   0.45886  -0.57178
O          O       0.12381   0.07350   0.99536  -0.37931
O          O       0.09822   0.16531   0.66764  -0.53376
O          O       0.57723   0.47332   0.65910  -0.52953
O          O       0.66955   0.41408   0.53085  -0.55792
O          O       0.87600   0.11266   0.54157  -0.56931
O          O       0.12455   0.42370   0.00571  -0.38020

