data_crystal

_audit_creation_method 'AiiDA-DDEC plugin'

_cell_length_a        13.63476
_cell_length_b        15.32904
_cell_length_c        15.03697

_cell_angle_alpha     89.99133
_cell_angle_beta     89.95619
_cell_angle_gamma     89.88830

_symmetry_space_group_name_Hall 'P 1'
_symmetry_space_group_name_H-M  'P 1'

loop_
_symmetry_equiv_pos_as_xyz
 'x,y,z'

loop_
_atom_site_label
_atom_site_type_symbol
_atom_site_fract_x
_atom_site_fract_y
_atom_site_fract_z
_atom_site_charge
Zn         Zn      0.60717   0.52708   0.31040   0.86486
Zn         Zn      0.63553   0.57626   0.71519   0.86370
Zn         Zn      0.89293   0.47285   0.81020   0.86485
Zn         Zn      0.86503   0.42364   0.21538   0.86482
Zn         Zn      0.39263   0.02859   0.19002   0.86564
Zn         Zn      0.36488   0.07746   0.78451   0.86338
Zn         Zn      0.10801   0.97194   0.68983   0.86377
Zn         Zn      0.13509   0.92253   0.28619   0.86277
Zn         Zn      0.39281   0.47290   0.68959   0.86477
Zn         Zn      0.36448   0.42373   0.28481   0.86364
Zn         Zn      0.10705   0.52713   0.18980   0.86495
Zn         Zn      0.13498   0.57636   0.78463   0.86484
Zn         Zn      0.60731   0.97142   0.80994   0.86551
Zn         Zn      0.63508   0.92259   0.21558   0.86390
Zn         Zn      0.89199   0.02802   0.31017   0.86470
Zn         Zn      0.86494   0.07750   0.71356   0.86258
Zn         Zn      0.00000   0.50000   0.49999   1.06455
Zn         Zn      0.50000   0.50000   0.00001   1.06575
Zn         Zn     -0.00067  -0.00199  -0.00106   1.06390
Zn         Zn      0.49899  -0.00190   0.50050   1.06329
H          H       0.71907   0.72605   0.29370   0.11251
H          H       0.54726   0.59338   0.50818   0.10515
H          H       0.30162   0.84937   0.14804   0.35574
H          H       0.78150   0.27253   0.79421   0.11276
H          H       0.95363   0.40703   0.00849   0.10395
H          H       0.19893   0.15099   0.64745   0.35590
H          H       0.28140   0.22742   0.20713   0.11219
H          H       0.45397   0.09280   0.99188   0.10510
H          H       0.69894   0.34975   0.35229   0.35567
H          H       0.21948   0.77305   0.70763   0.11164
H          H       0.04705   0.90695   0.49223   0.10519
H          H       0.80162   0.65128   0.85290   0.35613
H          H       0.28093   0.27395   0.70630   0.11269
H          H       0.45274   0.40661   0.49182   0.10524
H          H       0.69837   0.15066   0.85199   0.35560
H          H       0.21850   0.72747   0.20578   0.11276
H          H       0.04636   0.59296   0.99151   0.10400
H          H       0.80107   0.84902   0.35254   0.35607
H          H       0.71860   0.77258   0.79286   0.11223
H          H       0.54581   0.90714   0.00807   0.10564
H          H       0.30104   0.65024   0.64771   0.35569
H          H       0.78051   0.22694   0.29237   0.11178
H          H       0.95286   0.09301   0.50775   0.10546
H          H       0.19837   0.34871   0.14710   0.35607
C          C       0.50465   0.76165   0.20982  -0.03162
C          C       0.49845   0.67434   0.23704   0.02820
C          C       0.64395   0.72528   0.27022   0.18625
C          C       0.43551   0.82383   0.17381   0.57618
C          C       0.42116   0.60568   0.23137   0.55876
C          C       0.75335   0.49841   0.46605  -0.01480
C          C       0.76000   0.51645   0.55728  -0.01721
C          C       0.61944   0.56378   0.50922   0.17483
C          C       0.81927   0.45225   0.40435   0.58738
C          C       0.83485   0.49523   0.62436   0.57790
C          C       0.99564   0.23803   0.70911  -0.03265
C          C       0.00170   0.32518   0.73690   0.02821
C          C       0.85645   0.27383   0.77027   0.18504
C          C       0.06472   0.17639   0.67190   0.57643
C          C       0.07890   0.39398   0.73136   0.55862
C          C       0.74725   0.50142   0.96616  -0.01309
C          C       0.74047   0.48348   0.05741  -0.01706
C          C       0.88133   0.43648   0.00950   0.17484
C          C       0.68161   0.54782   0.90440   0.58661
C          C       0.66525   0.50452   0.12439   0.57818
C          C       0.49568   0.26225   0.29152  -0.03119
C          C       0.50174   0.17485   0.26426   0.02924
C          C       0.35643   0.22661   0.23084   0.18725
C          C       0.56461   0.32408   0.32810   0.57773
C          C       0.57875   0.10553   0.26952   0.55889
C          C       0.24723  -0.00072   0.03402  -0.01442
C          C       0.24078   0.01729   0.94275  -0.01788
C          C       0.38152   0.06380   0.99080   0.17030
C          C       0.18106   0.95349   0.09587   0.59013
C          C       0.16598   0.99565   0.87572   0.57649
C          C       0.00410   0.73850   0.78987  -0.03222
C          C      -0.00190   0.82575   0.76213   0.02872
C          C       0.14415   0.77406   0.73072   0.18781
C          C       0.93514   0.67669   0.82621   0.57901
C          C       0.92075   0.89503   0.76534   0.55643
C          C       0.25353   0.00090   0.53390  -0.01181
C          C       0.26011   0.98268   0.44271  -0.01762
C          C       0.11941   0.93604   0.49106   0.17283
C          C       0.31891   0.04754   0.59561   0.58515
C          C       0.33523   0.00299   0.37555   0.57549
C          C       0.49535   0.23835   0.79018  -0.03165
C          C       0.50155   0.32566   0.76296   0.02830
C          C       0.35605   0.27472   0.72978   0.18647
C          C       0.56448   0.17617   0.82618   0.57640
C          C       0.57884   0.39433   0.76863   0.55886
C          C       0.24665   0.50159   0.53395  -0.01478
C          C       0.24000   0.48356   0.44272  -0.01727
C          C       0.38056   0.43622   0.49078   0.17455
C          C       0.18073   0.54776   0.59564   0.58766
C          C       0.16515   0.50477   0.37564   0.57792
C          C       0.00436   0.76197   0.29088  -0.03263
C          C      -0.00170   0.67482   0.26309   0.02822
C          C       0.14355   0.72616   0.22972   0.18478
C          C       0.93528   0.82361   0.32810   0.57651
C          C       0.92110   0.60603   0.26863   0.55852
C          C       0.25275   0.49858   0.03384  -0.01302
C          C       0.25953   0.51652   0.94258  -0.01739
C          C       0.11867   0.56352   0.99050   0.17480
C          C       0.31839   0.45218   0.09561   0.58684
C          C       0.33475   0.49548   0.87561   0.57795
C          C       0.50431   0.73775   0.70848  -0.03125
C          C       0.49825   0.82513   0.73577   0.02875
C          C       0.64357   0.77339   0.76916   0.18699
C          C       0.43539   0.67591   0.67190   0.57772
C          C       0.42125   0.89445   0.73047   0.55824
C          C       0.75265   0.00062   0.96594  -0.01749
C          C       0.75897   0.98256   0.05725  -0.01720
C          C       0.61823   0.93620   0.00914   0.17001
C          C       0.81890   0.04632   0.90403   0.58978
C          C       0.83413   0.00319   0.12428   0.57674
C          C       0.99590   0.26149   0.21011  -0.03234
C          C       0.00186   0.17420   0.23775   0.02847
C          C       0.85583   0.22592   0.26925   0.18782
C          C       0.06486   0.32330   0.17378   0.57903
C          C       0.07926   0.10494   0.23462   0.55728
C          C       0.74633  -0.00094   0.46611  -0.01039
C          C       0.73979   0.01729   0.55729  -0.01720
C          C       0.88048   0.06393   0.50891   0.17218
C          C       0.68101   0.95225   0.40446   0.58674
C          C       0.66479   0.99691   0.62452   0.57885
N          N       0.59716   0.79274   0.23186  -0.32612
N          N       0.58665   0.65352   0.27509  -0.32267
N          N       0.66331   0.52895   0.43700  -0.30978
N          N       0.67447   0.55700   0.58337  -0.30867
N          N       0.90325   0.20668   0.73125  -0.32535
N          N       0.91350   0.34574   0.77535  -0.32395
N          N       0.83750   0.47114   0.93718  -0.31159
N          N       0.82612   0.44317   0.08361  -0.30895
N          N       0.40328   0.29380   0.26924  -0.32762
N          N       0.41349   0.15452   0.22619  -0.32192
N          N       0.33740   0.02937   0.06311  -0.31111
N          N       0.32646   0.05744   0.91663  -0.30695
N          N       0.09689   0.70696   0.76896  -0.32740
N          N       0.08695   0.84595   0.72498  -0.32283
N          N       0.16346   0.97068   0.56311  -0.30851
N          N       0.17450   0.94242   0.41685  -0.30817
N          N       0.40285   0.20726   0.76814  -0.32596
N          N       0.41335   0.34648   0.72491  -0.32233
N          N       0.33669   0.47106   0.56300  -0.30989
N          N       0.32553   0.44300   0.41663  -0.30835
N          N       0.09675   0.79331   0.26874  -0.32551
N          N       0.08649   0.65425   0.22464  -0.32421
N          N       0.16250   0.52887   0.06282  -0.31151
N          N       0.17388   0.55684   0.91639  -0.30864
N          N       0.59672   0.70620   0.73074  -0.32750
N          N       0.58650   0.84547   0.77383  -0.32187
N          N       0.66241   0.97063   0.93686  -0.31020
N          N       0.67325   0.94254   0.08333  -0.30696
N          N       0.90311   0.29304   0.23106  -0.32734
N          N       0.91300   0.15399   0.27487  -0.32301
N          N       0.83641   0.02929   0.43688  -0.30850
N          N       0.82542   0.05755   0.58313  -0.30851
O          O       0.46177   0.90199   0.16488  -0.53039
O          O       0.34699   0.79630   0.15256  -0.43375
O          O       0.34262   0.61675   0.19197  -0.50332
O          O       0.44773   0.53313   0.27246  -0.57392
O          O       0.77906   0.41825   0.33516  -0.53060
O          O       0.91113   0.44455   0.41537  -0.54387
O          O       0.91763   0.46264   0.60311  -0.55844
O          O       0.80981   0.51112   0.70482  -0.51341
O          O       0.03833   0.09853   0.66063  -0.53126
O          O       0.15362   0.20409   0.65233  -0.43509
O          O       0.15756   0.38317   0.69198  -0.50328
O          O       0.05216   0.46649   0.77249  -0.57406
O          O       0.72246   0.58176   0.83536  -0.53204
O          O       0.58968   0.55557   0.91533  -0.54463
O          O       0.58247   0.53702   0.10304  -0.55844
O          O       0.69005   0.48865   0.20488  -0.51442
O          O       0.53799   0.40205   0.33901  -0.53364
O          O       0.65361   0.29679   0.34764  -0.43537
O          O       0.65710   0.11539   0.30950  -0.50591
O          O       0.55241   0.03371   0.22742  -0.57298
O          O       0.22123   0.91962   0.16509  -0.53175
O          O       0.08915   0.94637   0.08477  -0.54564
O          O       0.08471   0.96062   0.89713  -0.56130
O          O       0.18971   0.01315   0.79531  -0.51195
O          O       0.96162   0.59850   0.83539  -0.53263
O          O       0.84677   0.70433   0.84773  -0.43514
O          O       0.83929   0.88441   0.79972  -0.50502
O          O       0.95016   0.96831   0.72750  -0.56913
O          O       0.27771   0.08037   0.66500  -0.53167
O          O       0.41054   0.05701   0.58427  -0.54286
O          O       0.41808   0.03519   0.39683  -0.55734
O          O       0.31059   0.98692   0.29519  -0.51150
O          O       0.53822   0.09800   0.83511  -0.53057
O          O       0.65300   0.20370   0.84744  -0.43366
O          O       0.65738   0.38325   0.80802  -0.50355
O          O       0.55227   0.46687   0.72754  -0.57372
O          O       0.22094   0.58177   0.66483  -0.53106
O          O       0.08887   0.55545   0.58463  -0.54376
O          O       0.08237   0.53736   0.39689  -0.55830
O          O       0.19018   0.48888   0.29518  -0.51338
O          O       0.96166   0.90147   0.33938  -0.53126
O          O       0.84637   0.79591   0.34766  -0.43542
O          O       0.84244   0.61684   0.30801  -0.50316
O          O       0.94783   0.53351   0.22751  -0.57405
O          O       0.27754   0.41825   0.16464  -0.53202
O          O       0.41031   0.44443   0.08467  -0.54490
O          O       0.41753   0.46299   0.89696  -0.55859
O          O       0.30995   0.51135   0.79512  -0.51413
O          O       0.46201   0.59795   0.66098  -0.53351
O          O       0.34639   0.70320   0.65235  -0.43542
O          O       0.34297   0.88462   0.69033  -0.50681
O          O       0.44754   0.96625   0.77260  -0.57240
O          O       0.77896   0.08046   0.83493  -0.52963
O          O       0.91093   0.05332   0.91505  -0.54604
O          O       0.91659   0.03564   0.10270  -0.55902
O          O       0.80986   0.98694   0.20482  -0.51356
O          O       0.03838   0.40150   0.16461  -0.53269
O          O       0.15322   0.29566   0.15227  -0.43485
O          O       0.16076   0.11559   0.20037  -0.50431
O          O       0.04981   0.03168   0.27251  -0.56907
O          O       0.72240   0.91968   0.33500  -0.53275
O          O       0.58944   0.94244   0.41579  -0.54524
O          O       0.58206   0.96436   0.60351  -0.56017
O          O       0.68946   0.01317   0.70485  -0.51275

