data_crystal

_audit_creation_method 'AiiDA-DDEC plugin'

_cell_length_a        12.22397
_cell_length_b        11.92394
_cell_length_c        18.11810

_cell_angle_alpha     79.60764
_cell_angle_beta     69.92641
_cell_angle_gamma     58.30819

_symmetry_space_group_name_Hall 'P 1'
_symmetry_space_group_name_H-M  'P 1'

loop_
_symmetry_equiv_pos_as_xyz
 'x,y,z'

loop_
_atom_site_label
_atom_site_type_symbol
_atom_site_fract_x
_atom_site_fract_y
_atom_site_fract_z
_atom_site_charge
Co         Co      0.37499   0.24994   0.25014   0.41532
Co         Co      0.62478   0.74999   0.74984   0.41507
H          H       0.28872   0.29904   0.10351   0.08121
H          H       0.33035   0.62780   0.98482   0.10364
H          H       0.39006   0.64751   0.10104   0.10428
H          H       0.38345   0.49815   0.21537   0.08235
H          H       0.34241   0.34407   0.94315   0.08240
H          H       0.26961   0.51558   0.92357   0.06555
H          H       0.18647   0.31344   0.91736   0.07883
H          H       0.10519   0.48148   0.88683   0.06120
H          H       0.02267   0.65526   0.98305   0.05290
H          H       0.05122   0.60428   0.07646   0.08516
H          H       0.60716   0.20167   0.10231   0.08243
H          H       0.68434   0.87216   0.98523   0.10407
H          H       0.50722   0.85297   0.10238   0.10397
H          H       0.39925   0.00274   0.21634   0.08171
H          H       0.71662   0.15499   0.94214   0.08270
H          H       0.80901   0.98325   0.92325   0.06478
H          H       0.89819   0.18592   0.91679   0.07882
H          H       0.01149   0.01779   0.88671   0.06029
H          H       0.99545   0.84436   0.98301   0.05324
H          H       0.87084   0.89571   0.07602   0.08620
H          H       0.41453   0.29636   0.39641   0.08250
H          H       0.04079   0.63015   0.51482   0.10403
H          H       0.95803   0.65138   0.39948   0.10485
H          H       0.11432   0.50000   0.28574   0.08202
H          H       0.31860   0.34294   0.55595   0.08192
H          H       0.21601   0.51433   0.57594   0.06516
H          H       0.50581   0.31232   0.58172   0.07805
H          H       0.41383   0.48018   0.61270   0.06064
H          H       0.31750   0.65398   0.51691   0.05360
H          H       0.34280   0.60352   0.42303   0.08561
H          H       0.18907   0.20359   0.39764   0.08254
H          H       0.44551   0.86954   0.51436   0.10429
H          H       0.64386   0.84895   0.39808   0.10520
H          H       0.60103   0.00070   0.28469   0.08180
H          H       0.12452   0.15571   0.55708   0.08292
H          H       0.20729   0.98418   0.57642   0.06628
H          H       0.91099   0.18690   0.58240   0.07906
H          H       0.97087   0.01879   0.61294   0.06074
H          H       0.16500   0.84520   0.51715   0.05235
H          H       0.23585   0.89584   0.42346   0.08560
H          H       0.71114   0.70106   0.89649   0.08144
H          H       0.66995   0.37220   0.01516   0.10386
H          H       0.61039   0.35215   0.89900   0.10422
H          H       0.61670   0.50178   0.78467   0.08229
H          H       0.65748   0.65607   0.05674   0.08244
H          H       0.73041   0.48456   0.07643   0.06544
H          H       0.81338   0.68674   0.08256   0.07890
H          H       0.89477   0.51874   0.11316   0.06100
H          H       0.97742   0.34485   0.01692   0.05328
H          H       0.94861   0.39590   0.92358   0.08508
H          H       0.39265   0.79851   0.89775   0.08229
H          H       0.31577   0.12800   0.01460   0.10400
H          H       0.49281   0.14712   0.89740   0.10456
H          H       0.60051  -0.00256   0.78351   0.08210
H          H       0.28335   0.84519   0.05796   0.08260
H          H       0.19112   0.01685   0.07673   0.06465
H          H       0.10186   0.81407   0.08324   0.07892
H          H       0.98858   0.98229   0.11334   0.06067
H          H       0.00461   0.15576   0.01701   0.05361
H          H       0.12920   0.10445   0.92395   0.08680
H          H       0.58563   0.70324   0.60357   0.08244
H          H       0.95943   0.36962   0.48525   0.10395
H          H       0.04208   0.34839   0.60058   0.10507
H          H       0.88567   0.49963   0.71434   0.08220
H          H       0.68159   0.65689   0.44399   0.08226
H          H       0.78412   0.48556   0.42401   0.06508
H          H       0.49426   0.68763   0.41824   0.07809
H          H       0.58636   0.51969   0.38728   0.06095
H          H       0.68271   0.34585   0.48304   0.05334
H          H       0.65738   0.39623   0.57700   0.08599
H          H       0.81069   0.79587   0.60224   0.08280
H          H       0.55469   0.13064   0.48580   0.10415
H          H       0.35616   0.15143   0.60198   0.10544
H          H       0.39896  -0.00082   0.71528   0.08177
H          H       0.87526   0.84426   0.44298   0.08271
H          H       0.79266   0.01587   0.42367   0.06644
H          H       0.08880   0.81294   0.41775   0.07927
H          H       0.02920   0.98097   0.38713   0.06056
H          H       0.83493   0.15471   0.48301   0.05263
H          H       0.76410   0.10388   0.57661   0.08556
C          C       0.31160   0.37658   0.10092  -0.02306
C          C       0.30659   0.46013   0.03584   0.04994
C          C       0.33343   0.56092   0.03464  -0.14287
C          C       0.36657   0.57202   0.09926  -0.15679
C          C       0.36424   0.48844   0.16314   0.03627
C          C       0.26777   0.44179   0.97016  -0.10590
C          C       0.10692   0.41411   0.93777  -0.08455
C          C       0.02853   0.58017   0.02980  -0.08179
C          C       0.58669   0.12403   0.10028  -0.02449
C          C       0.65731   0.04000   0.03546   0.04814
C          C       0.63129   0.93920   0.03493  -0.14120
C          C       0.53276   0.92849   0.10004  -0.15731
C          C       0.47094   0.01240   0.16366   0.03753
C          C       0.76332   0.05755   0.96954  -0.10529
C          C       0.95705   0.08554   0.93751  -0.08349
C          C       0.94135   0.91972   0.02964  -0.08566
C          C       0.31273   0.37564   0.39913  -0.02593
C          C       0.23427   0.46003   0.46382   0.05095
C          C       0.10459   0.56267   0.46521  -0.14594
C          C       0.05860   0.57453   0.40109  -0.15461
C          C       0.14465   0.48981   0.33758   0.03517
C          C       0.29302   0.44076   0.52915  -0.10594
C          C       0.48186   0.41317   0.56165  -0.08143
C          C       0.38960   0.57952   0.46996  -0.08401
C          C       0.28845   0.12445   0.39981  -0.02381
C          C       0.30226   0.03978   0.46437   0.05026
C          C       0.43103   0.93741   0.46499  -0.14404
C          C       0.54139   0.92584   0.40032  -0.15588
C          C       0.51871   0.01068   0.33698   0.03777
C          C       0.17753   0.05820   0.52989  -0.10805
C          C       0.95532   0.08621   0.56203  -0.08370
C          C       0.14110   0.91992   0.47025  -0.08168
C          C       0.68834   0.62347   0.89908  -0.02313
C          C       0.69351   0.53990   0.96413   0.05042
C          C       0.66678   0.43903   0.96535  -0.14381
C          C       0.63363   0.42782   0.90076  -0.15634
C          C       0.63586   0.51148   0.83691   0.03615
C          C       0.73224   0.55831   0.02982  -0.10636
C          C       0.89303   0.58608   0.06218  -0.08546
C          C       0.97144   0.41998   0.97018  -0.08349
C          C       0.41320   0.87610   0.89975  -0.02440
C          C       0.34272   0.96008   0.96458   0.04765
C          C       0.36887   0.06081   0.96499  -0.14024
C          C       0.46726   0.07157   0.89983  -0.15835
C          C       0.52888   0.98773   0.83620   0.03781
C          C       0.23673   0.94255   0.03047  -0.10476
C          C       0.04303   0.91451   0.06254  -0.08409
C          C       0.05873   0.08039   0.97037  -0.08635
C          C       0.68745   0.62405   0.60082  -0.02500
C          C       0.76594   0.53972   0.53612   0.05085
C          C       0.89558   0.43717   0.53481  -0.14594
C          C       0.94154   0.42528   0.59893  -0.15420
C          C       0.85538   0.50986   0.66247   0.03502
C          C       0.70714   0.55908   0.47080  -0.10618
C          C       0.51830   0.58672   0.43831  -0.08203
C          C       0.61062   0.42029   0.53002  -0.08462
C          C       0.71140   0.87528   0.60014  -0.02461
C          C       0.69767   0.96018   0.53570   0.05102
C          C       0.56898   0.06274   0.53513  -0.14395
C          C       0.45854   0.07435   0.59975  -0.15635
C          C       0.48122   0.98927   0.66299   0.03739
C          C       0.82237   0.94177   0.47017  -0.10813
C          C       0.04463   0.91360   0.43808  -0.08360
C          C       0.85886   0.07989   0.52985  -0.08175
N          N       0.33631   0.39085   0.16600  -0.23773
N          N       0.13669   0.44822  -0.00047  -0.15645
N          N       0.49636   0.10999   0.16585  -0.23611
N          N       0.86427   0.05139  -0.00097  -0.15388
N          N       0.27206   0.39044   0.33451  -0.23390
N          N       0.41755   0.44716   0.49968  -0.15820
N          N       0.39396   0.10993   0.33469  -0.23543
N          N       0.08298   0.05207   0.50028  -0.15701
N          N       0.66362   0.60918   0.83403  -0.23762
N          N       0.86329   0.55190   0.00046  -0.15495
N          N       0.50341   0.89014   0.83413  -0.23612
N          N       0.13580   0.94869   0.00100  -0.15396
N          N       0.72800   0.60918   0.66548  -0.23444
N          N       0.58262   0.55269   0.50030  -0.15781
N          N       0.60588   0.88983   0.66523  -0.23487
N          N       0.91696   0.94780   0.49979  -0.15742

