data_crystal

_audit_creation_method 'AiiDA-DDEC plugin'

_cell_length_a        10.29741
_cell_length_b        15.44001
_cell_length_c        15.44001

_cell_angle_alpha     90.00638
_cell_angle_beta     89.95600
_cell_angle_gamma     90.04173

_symmetry_space_group_name_Hall 'P 1'
_symmetry_space_group_name_H-M  'P 1'

loop_
_symmetry_equiv_pos_as_xyz
 'x,y,z'

loop_
_atom_site_label
_atom_site_type_symbol
_atom_site_fract_x
_atom_site_fract_y
_atom_site_fract_z
_atom_site_charge
Eu         Eu      0.25005   0.50023   0.50022   1.94868
Eu         Eu      0.74994   0.49980   0.49980   1.94852
H          H       0.79068   0.41315   0.73698   0.13135
H          H       0.79055   0.27833   0.82541   0.10677
H          H       0.79058   0.58680   0.26301   0.13117
H          H       0.79063   0.72163   0.17463   0.10728
H          H       0.79083   0.26301   0.41334   0.13158
H          H       0.79068   0.17487   0.27834   0.10749
H          H       0.79050   0.73701   0.58687   0.13139
H          H       0.79056   0.82522   0.72183   0.10679
H          H       0.70951   0.58685   0.73698   0.13161
H          H       0.70933   0.72182   0.82520   0.10700
H          H       0.70917   0.41336   0.26305   0.13148
H          H       0.70922   0.27834   0.17489   0.10763
H          H       0.70934   0.73694   0.41315   0.13129
H          H       0.70935   0.82541   0.27833   0.10719
H          H       0.70940   0.26306   0.58677   0.13156
H          H       0.70926   0.17464   0.72161   0.10745
H          H       0.20929   0.58682   0.26298   0.13119
H          H       0.20940   0.72178   0.17479   0.10673
H          H       0.20938   0.41320   0.73702   0.13109
H          H       0.20933   0.27824   0.82518   0.10706
H          H       0.20920   0.73695   0.58669   0.13119
H          H       0.20935   0.82533   0.72155   0.10721
H          H       0.20954   0.26302   0.41312   0.13119
H          H       0.20947   0.17458   0.27830   0.10676
H          H       0.29045   0.41314   0.26306   0.13166
H          H       0.29062   0.27831   0.17459   0.10720
H          H       0.29080   0.58668   0.73690   0.13145
H          H       0.29073   0.72153   0.82531   0.10751
H          H       0.29068   0.26301   0.58680   0.13183
H          H       0.29068   0.17480   0.72179   0.10714
H          H       0.29063   0.73698   0.41323   0.13177
H          H       0.29077   0.82516   0.27825   0.10780
H          H       0.00011   0.34301   0.99007   0.14589
H          H      -0.00012   0.30438   0.16135   0.16038
H          H       0.00010   0.65700   0.00992   0.14582
H          H      -0.00010   0.69565   0.83864   0.16013
H          H      -0.00011   0.00994   0.34303   0.14555
H          H       0.00009   0.83866   0.30436   0.16032
H          H      -0.00011   0.99006   0.65698   0.14554
H          H       0.00011   0.16133   0.69565   0.16026
H          H       0.50010   0.65733   0.99003   0.14551
H          H       0.49988   0.69586   0.16130   0.15969
H          H       0.50011   0.34267   0.00996   0.14544
H          H       0.49990   0.30416   0.83869   0.16006
H          H       0.49988   0.99004   0.34266   0.14556
H          H       0.50012   0.16132   0.30418   0.15979
H          H       0.49990   0.00995   0.65735   0.14556
H          H       0.50009   0.83867   0.69585   0.16004
C          C       0.88193   0.38440   0.75829  -0.06479
C          C       0.88209   0.30821   0.80663  -0.12657
C          C       0.88185   0.61558   0.24173  -0.06536
C          C       0.88211   0.69176   0.19338  -0.12670
C          C       0.88208   0.24179   0.38447  -0.06567
C          C       0.88222   0.19362   0.30816  -0.12736
C          C       0.88176   0.75824   0.61565  -0.06530
C          C       0.88204   0.80643   0.69193  -0.12645
C          C       0.61829   0.61559   0.75825  -0.06476
C          C       0.61789   0.69185   0.80639  -0.12621
C          C       0.61796   0.38453   0.24178  -0.06375
C          C       0.61772   0.30825   0.19367  -0.12749
C          C       0.61814   0.75831   0.38446  -0.06370
C          C       0.61787   0.80665   0.30835  -0.12688
C          C       0.61818   0.24171   0.61550  -0.06472
C          C       0.61782   0.19336   0.69162  -0.12664
C          C       0.11802   0.61562   0.24177  -0.06479
C          C       0.11787   0.69190   0.19356  -0.12674
C          C       0.11811   0.38440   0.75824  -0.06540
C          C       0.11785   0.30812   0.80643  -0.12693
C          C       0.11796   0.75826   0.61552  -0.06540
C          C       0.11782   0.80657   0.69173  -0.12703
C          C       0.11828   0.24173   0.38437  -0.06575
C          C       0.11799   0.19338   0.30819  -0.12662
C          C       0.38165   0.38444   0.24171  -0.06530
C          C       0.38205   0.30833   0.19336  -0.12611
C          C       0.38198   0.61545   0.75827  -0.06414
C          C       0.38223   0.69158   0.80659  -0.12693
C          C       0.38190   0.24175   0.61556  -0.06412
C          C       0.38217   0.19360   0.69182  -0.12660
C          C       0.38185   0.75826   0.38446  -0.06431
C          C       0.38222   0.80639   0.30821  -0.12714
C          C       0.00003   0.42268   0.73560  -0.07787
C          C      -0.00006   0.27039   0.83162   0.04464
C          C       0.00003   0.18869   0.88260   0.05645
C          C      -0.00012   0.19619   0.97425   0.19496
C          C      -0.00005   0.27967   0.02053  -0.16861
C          C      -0.00018   0.26027   0.10624  -0.17710
C          C      -0.00029   0.16495   0.11032   0.19078
C          C      -0.00008   0.57733   0.26442  -0.07760
C          C       0.00004   0.72961   0.16839   0.04433
C          C       0.00013   0.81131   0.11741   0.05689
C          C      -0.00012   0.80382   0.02576   0.19506
C          C      -0.00005   0.72034   0.97947  -0.16866
C          C      -0.00016   0.73974   0.89376  -0.17621
C          C      -0.00027   0.83506   0.88969   0.19048
C          C       0.00021   0.26437   0.42270  -0.07710
C          C       0.00006   0.16841   0.27041   0.04507
C          C      -0.00008   0.11742   0.18870   0.05672
C          C       0.00012   0.02577   0.19621   0.19478
C          C       0.00005   0.97948   0.27968  -0.16810
C          C       0.00016   0.89378   0.26026  -0.17692
C          C       0.00028   0.88969   0.16495   0.19057
C          C      -0.00016   0.73564   0.57730  -0.07747
C          C      -0.00005   0.83159   0.72960   0.04462
C          C      -0.00010   0.88258   0.81130   0.05676
C          C       0.00011   0.97423   0.80380   0.19472
C          C       0.00005   0.02051   0.72033  -0.16803
C          C       0.00016   0.10622   0.73975  -0.17661
C          C       0.00026   0.11030   0.83507   0.19055
C          C       0.50014   0.57730   0.73563  -0.07732
C          C       0.50004   0.72954   0.83137   0.04513
C          C       0.50007   0.81153   0.88161   0.05178
C          C       0.49988   0.80429   0.97427   0.20600
C          C       0.49999   0.72090   0.02041  -0.16768
C          C       0.49976   0.74026   0.10635  -0.17398
C          C       0.49965   0.83521   0.11151   0.18881
C          C       0.49976   0.42270   0.26438  -0.07738
C          C       0.49993   0.27046   0.16862   0.04554
C          C       0.50007   0.18848   0.11839   0.05171
C          C       0.49988   0.19570   0.02572   0.20586
C          C       0.49999   0.27910   0.97959  -0.16762
C          C       0.49976   0.25975   0.89364  -0.17442
C          C       0.49963   0.16481   0.88848   0.18874
C          C       0.50001   0.73560   0.42268  -0.07812
C          C       0.50007   0.83140   0.27045   0.04568
C          C       0.49998   0.88164   0.18846   0.05154
C          C       0.50012   0.97429   0.19570   0.20585
C          C       0.50001   0.02043   0.27910  -0.16755
C          C       0.50024   0.10637   0.25976  -0.17448
C          C       0.50038   0.11153   0.16481   0.18873
C          C       0.50008   0.26443   0.57733  -0.07775
C          C       0.49995   0.16860   0.72955   0.04561
C          C       0.49988   0.11838   0.81153   0.05140
C          C       0.50011   0.02571   0.80432   0.20582
C          C       0.50000   0.97957   0.72091  -0.16722
C          C       0.50022   0.89362   0.74026  -0.17496
C          C       0.50034   0.88847   0.83520   0.18878
S          S       0.00061   0.52585   0.68441   1.21660
S          S      -0.00073   0.47414   0.31559   1.21642
S          S       0.00060   0.31546   0.52589   1.21651
S          S      -0.00048   0.68452   0.47414   1.21739
S          S       0.50052   0.47421   0.68454   1.21681
S          S       0.49933   0.52583   0.31544   1.21651
S          S       0.49945   0.68445   0.52577   1.21688
S          S       0.50069   0.31557   0.47421   1.21609
N          N      -0.00034   0.12804   0.02997  -0.24968
N          N      -0.00033   0.87197   0.97004  -0.25016
N          N       0.00032   0.97004   0.12805  -0.24988
N          N       0.00033   0.02995   0.87196  -0.24991
N          N       0.49969   0.87120   0.02947  -0.25000
N          N       0.49970   0.12881   0.97052  -0.24960
N          N       0.50031   0.02950   0.12881  -0.24967
N          N       0.50029   0.97052   0.87120  -0.24969
O          O       0.12219   0.52927   0.63267  -0.67689
O          O       0.11874   0.47047   0.36883  -0.67614
O          O       0.12220   0.36728   0.52937  -0.67707
O          O       0.11971   0.63188   0.47060  -0.67642
O          O       0.38047   0.47055   0.63178  -0.67592
O          O       0.37767   0.52941   0.36724  -0.67698
O          O       0.37788   0.63264   0.52934  -0.67713
O          O       0.38115   0.36882   0.47044  -0.67603
O          O       0.87749   0.47067   0.36719  -0.67668
O          O       0.88093   0.52954   0.63135  -0.67596
O          O       0.87815   0.63254   0.47073  -0.67724
O          O       0.88062   0.36826   0.52938  -0.67601
O          O       0.61925   0.52943   0.36834  -0.67647
O          O       0.62204   0.47071   0.63261  -0.67745
O          O       0.62242   0.36723   0.47061  -0.67687
O          O       0.61917   0.63137   0.52956  -0.67622
O          O      -0.00012   0.58909   0.75546  -0.56871
O          O       0.00016   0.41091   0.24455  -0.56852
O          O      -0.00012   0.24456   0.58922  -0.56833
O          O       0.00005   0.75541   0.41079  -0.56884
O          O       0.49993   0.41077   0.75540  -0.56895
O          O       0.50015   0.58923   0.24457  -0.56855
O          O       0.50008   0.75543   0.58911  -0.56905
O          O       0.49984   0.24457   0.41090  -0.56865

