data_crystal

_audit_creation_method 'AiiDA-DDEC plugin'

_cell_length_a        11.44342
_cell_length_b        17.91818
_cell_length_c        17.77020

_cell_angle_alpha     90.00000
_cell_angle_beta     90.00000
_cell_angle_gamma     99.17383

_symmetry_space_group_name_Hall 'P 1'
_symmetry_space_group_name_H-M  'P 1'

loop_
_symmetry_equiv_pos_as_xyz
 'x,y,z'

loop_
_atom_site_label
_atom_site_type_symbol
_atom_site_fract_x
_atom_site_fract_y
_atom_site_fract_z
_atom_site_charge
Co         Co      0.96844   0.07341   0.91881   0.87455
Co         Co      0.03156   0.42659   0.41881   0.87448
Co         Co      0.03156   0.92659   0.08119   0.87446
Co         Co      0.96845   0.57341   0.58119   0.87448
H          H       0.00874   0.78230   0.98800   0.31486
H          H       0.00284   0.69128   0.95488   0.30662
H          H       0.95393   0.92051   0.76281   0.11918
H          H       0.00204   0.65774   0.82613   0.12747
H          H       0.95585   0.82433   0.66012   0.11633
H          H       0.52694   0.97635   0.84852   0.11913
H          H       0.74534   0.97972   0.85176   0.10878
H          H       0.79351   0.16351   0.99437   0.09605
H          H       0.57937   0.17105   0.99587   0.12207
H          H       0.35865   0.99438   0.82983   0.12421
H          H       0.14445   0.00004   0.83273   0.09941
H          H       0.18474   0.15777   0.00389   0.09571
H          H       0.40012   0.15770   0.01137   0.12097
H          H       0.99126   0.71770   0.48800   0.31501
H          H      -0.00284   0.80871   0.45488   0.30637
H          H       0.04608   0.57948   0.26280   0.11940
H          H      -0.00204   0.84226   0.32613   0.12717
H          H       0.04416   0.67567   0.16012   0.11642
H          H       0.47306   0.52364   0.34852   0.11906
H          H       0.25466   0.52027   0.35175   0.10878
H          H       0.20649   0.33649   0.49437   0.09601
H          H       0.42063   0.32895   0.49586   0.12206
H          H       0.64135   0.50562   0.32982   0.12424
H          H       0.85555   0.49996   0.33273   0.09939
H          H       0.81526   0.34223   0.50390   0.09572
H          H       0.59988   0.34230   0.51138   0.12097
H          H       0.99126   0.21770   0.01200   0.31488
H          H      -0.00284   0.30871   0.04512   0.30645
H          H       0.04607   0.07948   0.23720   0.11937
H          H      -0.00204   0.34226   0.17387   0.12727
H          H       0.04415   0.17567   0.33989   0.11646
H          H       0.47306   0.02364   0.15148   0.11926
H          H       0.25466   0.02028   0.14825   0.10880
H          H       0.20649   0.83648   0.00563   0.09598
H          H       0.42063   0.82894   0.00414   0.12210
H          H       0.64135   0.00562   0.17018   0.12264
H          H       0.85555  -0.00004   0.16728   0.09943
H          H       0.81526   0.84223   0.99611   0.09577
H          H       0.59988   0.84230   0.98863   0.12090
H          H       0.00874   0.28230   0.51200   0.31475
H          H       0.00284   0.19129   0.54512   0.30651
H          H       0.95393   0.42052   0.73720   0.11931
H          H       0.00204   0.15774   0.67387   0.12729
H          H       0.95585   0.32433   0.83989   0.11653
H          H       0.52694   0.47636   0.65148   0.11914
H          H       0.74534   0.47972   0.64825   0.10893
H          H       0.79351   0.66351   0.50564   0.09586
H          H       0.57937   0.67105   0.50414   0.12192
H          H       0.35865   0.49438   0.67018   0.12437
H          H       0.14445   0.50004   0.66728   0.09951
H          H       0.18474   0.65777   0.49611   0.09558
H          H       0.40012   0.65770   0.48863   0.12085
C          C       0.98304   0.84506   0.85199  -0.18136
C          C      -0.00214   0.76979   0.87151   0.29031
C          C       0.99308   0.71596   0.81304  -0.23792
C          C       0.97899   0.73543   0.73812   0.00368
C          C       0.96620   0.80999   0.71888  -0.15998
C          C       0.96634   0.86295   0.77573  -0.09209
C          C       0.98468   0.90578   0.90867   0.57321
C          C       0.97790   0.67668   0.67852   0.54276
C          C       0.53113   0.07370   0.92229   0.09343
C          C       0.58149   0.01958   0.88159  -0.18665
C          C       0.70341   0.02050   0.88300   0.09478
C          C       0.73093   0.12337   0.96258   0.09944
C          C       0.61009   0.12655   0.96346  -0.18260
C          C       0.40167   0.07534   0.92124   0.09150
C          C       0.32560   0.03110   0.87059  -0.17451
C          C       0.20487   0.03399   0.87130   0.10009
C          C       0.22706   0.12174   0.96696   0.10598
C          C       0.34849   0.12162   0.97017  -0.17874
C          C       0.01696   0.65494   0.35199  -0.18124
C          C       0.00214   0.73021   0.37151   0.29011
C          C       0.00692   0.78403   0.31304  -0.23772
C          C       0.02102   0.76457   0.23811   0.00356
C          C       0.03380   0.69000   0.21887  -0.15980
C          C       0.03367   0.63705   0.27573  -0.09206
C          C       0.01532   0.59422   0.40866   0.57325
C          C       0.02210   0.82331   0.17852   0.54267
C          C       0.46887   0.42630   0.42229   0.09338
C          C       0.41851   0.48042   0.38158  -0.18646
C          C       0.29659   0.47950   0.38300   0.09476
C          C       0.26907   0.37663   0.46258   0.09933
C          C       0.38991   0.37345   0.46346  -0.18254
C          C       0.59833   0.42466   0.42124   0.09145
C          C       0.67440   0.46890   0.37058  -0.17450
C          C       0.79513   0.46601   0.37130   0.10012
C          C       0.77294   0.37826   0.46696   0.10591
C          C       0.65151   0.37838   0.47017  -0.17874
C          C       0.01696   0.15494   0.14801  -0.18123
C          C       0.00214   0.23021   0.12849   0.29006
C          C       0.00692   0.28403   0.18697  -0.23775
C          C       0.02102   0.26457   0.26189   0.00369
C          C       0.03380   0.19000   0.28113  -0.15990
C          C       0.03366   0.13705   0.22427  -0.09210
C          C       0.01532   0.09422   0.09134   0.57337
C          C       0.02210   0.32332   0.32149   0.54262
C          C       0.46887   0.92630   0.07771   0.09352
C          C       0.41851   0.98041   0.11842  -0.18651
C          C       0.29659   0.97950   0.11700   0.09473
C          C       0.26907   0.87663   0.03742   0.09933
C          C       0.38991   0.87344   0.03654  -0.18250
C          C       0.59833   0.92466   0.07877   0.09136
C          C       0.67440   0.96890   0.12942  -0.17325
C          C       0.79513   0.96601   0.12871   0.10026
C          C       0.77294   0.87826   0.03304   0.10594
C          C       0.65151   0.87838   0.02983  -0.17867
C          C       0.98304   0.34506   0.64801  -0.18147
C          C      -0.00214   0.26979   0.62849   0.29020
C          C       0.99308   0.21597   0.68697  -0.23776
C          C       0.97898   0.23543   0.76189   0.00365
C          C       0.96620   0.30999   0.78113  -0.15983
C          C       0.96634   0.36295   0.72427  -0.09205
C          C       0.98468   0.40578   0.59134   0.57350
C          C       0.97790   0.17668   0.82149   0.54264
C          C       0.53113   0.57370   0.57771   0.09326
C          C       0.58149   0.51958   0.61842  -0.18631
C          C       0.70341   0.52050   0.61701   0.09485
C          C       0.73093   0.62337   0.53742   0.09936
C          C       0.61009   0.62655   0.53654  -0.18264
C          C       0.40168   0.57533   0.57877   0.09136
C          C       0.32561   0.53109   0.62942  -0.17432
C          C       0.20488   0.53399   0.62871   0.10018
C          C       0.22707   0.62174   0.53304   0.10575
C          C       0.34850   0.62161   0.52983  -0.17873
N          N       0.01809   0.74744   0.94393  -0.61896
N          N       0.77793   0.07132   0.92295  -0.22494
N          N       0.15480   0.07805   0.91902  -0.23942
N          N       0.98192   0.75256   0.44393  -0.61905
N          N       0.22207   0.42868   0.42295  -0.22484
N          N       0.84520   0.42195   0.41902  -0.23935
N          N       0.98192   0.25256   0.05607  -0.61899
N          N       0.22207   0.92868   0.07705  -0.22493
N          N       0.84520   0.92195   0.08098  -0.23934
N          N       0.01808   0.24744   0.55608  -0.61898
N          N       0.77794   0.57131   0.57706  -0.22477
N          N       0.15480   0.57805   0.58099  -0.23937
O          O       0.94066   0.96455   0.88993  -0.57437
O          O       0.02944   0.89633   0.97328  -0.57128
O          O       0.96512   0.60678   0.69684  -0.54875
O          O       0.98905   0.69615   0.60922  -0.56893
O          O       0.05935   0.53545   0.38993  -0.57401
O          O       0.97057   0.60367   0.47328  -0.57166
O          O       0.03488   0.89322   0.19684  -0.54904
O          O       0.01096   0.80385   0.10921  -0.56863
O          O       0.05935   0.03545   0.11007  -0.57421
O          O       0.97056   0.10367   0.02672  -0.57164
O          O       0.03488   0.39322   0.30316  -0.54902
O          O       0.01096   0.30385   0.39079  -0.56859
O          O       0.94066   0.46455   0.61007  -0.57416
O          O       0.02943   0.39633   0.52672  -0.57175
O          O       0.96512   0.10678   0.80316  -0.54906
O          O       0.98904   0.19615   0.89079  -0.56857

