data_crystal

_audit_creation_method 'AiiDA-DDEC plugin'

_cell_length_a        10.01415
_cell_length_b        16.36576
_cell_length_c        17.06306

_cell_angle_alpha     99.09524
_cell_angle_beta     107.05842
_cell_angle_gamma     89.85714

_symmetry_space_group_name_Hall 'P 1'
_symmetry_space_group_name_H-M  'P 1'

loop_
_symmetry_equiv_pos_as_xyz
 'x,y,z'

loop_
_atom_site_label
_atom_site_type_symbol
_atom_site_fract_x
_atom_site_fract_y
_atom_site_fract_z
_atom_site_charge
Cd         Cd      0.00000   0.00000   0.00000   0.71441
Cd         Cd      0.00000   0.50000   0.00000   0.71545
H          H       0.19381   0.15805   0.02249   0.07857
H          H       0.91678   0.12347   0.15404   0.07807
H          H       0.00213   0.25578   0.25325   0.14616
H          H       0.28662   0.29269   0.11372   0.12485
H          H       0.42034   0.55626   0.37302   0.10283
H          H       0.37789   0.49189   0.27633   0.07811
H          H       0.51238   0.41276   0.42933   0.09286
H          H       0.53290   0.38685   0.33109   0.09563
H          H       0.41350   0.43338   0.50600   0.06972
H          H       0.24481   0.40525   0.50951   0.11601
H          H       0.13197   0.50370   0.42931   0.11597
H          H       0.28576   0.56747   0.45111   0.08912
H          H       0.96916   0.51502   0.30319   0.14151
H          H       0.59531   0.40220   0.11824   0.12882
H          H       0.71896   0.40573   0.01156   0.09363
H          H       0.07878   0.51198   0.18910   0.07377
H          H       0.25914   0.39624   0.21470   0.25048
H          H       0.59816   0.44130   0.25455   0.27283
H          H       0.17208   0.34142   0.97774   0.07881
H          H       0.76306   0.37695   0.84679   0.07783
H          H       0.74871   0.24474   0.74754   0.14549
H          H       0.17290   0.20637   0.88623   0.12453
H          H       0.04797   0.94389   0.62660   0.10201
H          H       0.10207   0.00795   0.72342   0.07770
H          H       0.08234   0.08758   0.57045   0.09249
H          H       0.20087   0.11326   0.66856   0.09526
H          H       0.90714   0.06705   0.49411   0.06981
H          H       0.73482   0.09508   0.49046   0.11607
H          H       0.70280   0.99750   0.57130   0.11499
H          H       0.83427   0.93294   0.54929   0.08874
H          H       0.66586   0.98442   0.69659   0.14227
H          H       0.47623   0.09802   0.88163   0.12925
H          H       0.70662   0.09473   0.98804   0.09421
H          H       0.88923   0.98787   0.81051   0.07383
H          H       0.04450   0.10340   0.78670   0.25271
H          H       0.34327   0.05888   0.74542   0.27282
H          H       0.80620   0.84195   0.97751   0.07859
H          H       0.08323   0.87653   0.84596   0.07822
H          H      -0.00212   0.74422   0.74675   0.14629
H          H       0.71339   0.70732   0.88628   0.12479
H          H       0.57967   0.44375   0.62699   0.10277
H          H       0.62212   0.50812   0.72368   0.07809
H          H       0.48763   0.58724   0.57067   0.09250
H          H       0.46711   0.61315   0.66891   0.09570
H          H       0.58651   0.56662   0.49400   0.06969
H          H       0.75520   0.59475   0.49049   0.11617
H          H       0.86804   0.49630   0.57070   0.11615
H          H       0.71425   0.43253   0.54890   0.08899
H          H       0.03085   0.48498   0.69681   0.14134
H          H       0.40470   0.59780   0.88176   0.12901
H          H       0.28105   0.59427   0.98844   0.09372
H          H       0.92123   0.48802   0.81090   0.07357
H          H       0.74087   0.60376   0.78530   0.25041
H          H       0.40185   0.55871   0.74546   0.27303
H          H       0.82793   0.65858   0.02226   0.07866
H          H       0.23695   0.62305   0.15322   0.07796
H          H       0.25130   0.75526   0.25247   0.14582
H          H       0.82711   0.79363   0.11378   0.12435
H          H       0.95204   0.05611   0.37340   0.10203
H          H       0.89794   0.99205   0.27659   0.07755
H          H       0.91767   0.91242   0.42955   0.09257
H          H       0.79914   0.88674   0.33145   0.09509
H          H       0.09287   0.93296   0.50590   0.06967
H          H       0.26519   0.90492   0.50955   0.11621
H          H       0.29721   0.00250   0.42871   0.11526
H          H       0.16574   0.06707   0.45072   0.08872
H          H       0.33415   0.01559   0.30341   0.14228
H          H       0.52378   0.90198   0.11837   0.12944
H          H       0.29339   0.90527   0.01197   0.09417
H          H       0.11078   0.01214   0.18949   0.07373
H          H       0.95551   0.89660   0.21330   0.25261
H          H       0.65674   0.94112   0.25459   0.27311
C          C       0.15319   0.18212   0.07386   0.09293
C          C      -0.00072   0.16289   0.14757   0.08840
C          C       0.04656   0.23607   0.20294  -0.23911
C          C       0.20589   0.25623   0.12533  -0.24025
C          C       0.15415   0.28466   0.19270   0.29764
C          C       0.19174   0.39170   0.31938   0.55426
C          C       0.39645   0.49140   0.34311  -0.10444
C          C       0.52574   0.44014   0.37733  -0.09569
C          C       0.31394   0.45764   0.51136  -0.08972
C          C       0.24488   0.50301   0.43777  -0.08745
C          C       0.74806   0.49887   0.36179   0.55752
C          C       0.91210   0.48929   0.23979  -0.22992
C          C       0.77311   0.45868   0.22010   0.29607
C          C       0.70341   0.42584   0.13660  -0.24812
C          C       0.77182   0.42777   0.07703   0.10046
C          C       0.97180   0.48805   0.17617   0.09164
C          C       0.07998   0.31758   0.92648   0.09467
C          C       0.85214   0.33738   0.85309   0.08709
C          C       0.84371   0.26417   0.79765  -0.23652
C          C       0.08090   0.24340   0.87496  -0.24025
C          C       0.96162   0.21533   0.80784   0.29556
C          C       0.87338   0.10909   0.68107   0.55576
C          C       0.05350   0.00867   0.65674  -0.10471
C          C       0.14784   0.06000   0.62234  -0.09363
C          C       0.80255   0.04266   0.48891  -0.09069
C          C       0.80719   0.99760   0.56275  -0.08507
C          C       0.38587   0.00105   0.63796   0.55606
C          C       0.67194   0.01048   0.75993  -0.23278
C          C       0.55249   0.04119   0.77964   0.29813
C          C       0.56598   0.07426   0.86311  -0.24912
C          C       0.69402   0.07251   0.92261   0.09948
C          C       0.79522   0.01195   0.82355   0.09247
C          C       0.84682   0.81788   0.92614   0.09279
C          C       0.00073   0.83711   0.85243   0.08856
C          C       0.95345   0.76393   0.79707  -0.23932
C          C       0.79412   0.74378   0.87467  -0.24050
C          C       0.84586   0.71534   0.80731   0.29785
C          C       0.80827   0.60831   0.68062   0.55394
C          C       0.60356   0.50860   0.65689  -0.10447
C          C       0.47427   0.55986   0.62268  -0.09512
C          C       0.68607   0.54236   0.48864  -0.08980
C          C       0.75513   0.49699   0.56224  -0.08745
C          C       0.25195   0.50113   0.63821   0.55775
C          C       0.08791   0.51071   0.76021  -0.22984
C          C       0.22690   0.54132   0.77990   0.29594
C          C       0.29660   0.57416   0.86340  -0.24799
C          C       0.22819   0.57223   0.92297   0.10052
C          C       0.02821   0.51195   0.82384   0.09156
C          C       0.92003   0.68242   0.07352   0.09449
C          C       0.14787   0.66262   0.14692   0.08721
C          C       0.15630   0.73583   0.20235  -0.23666
C          C       0.91911   0.75660   0.12504  -0.24032
C          C       0.03839   0.78468   0.19216   0.29563
C          C       0.12663   0.89092   0.31893   0.55576
C          C       0.94651   0.99133   0.34326  -0.10455
C          C       0.85217   0.94000   0.37766  -0.09361
C          C       0.19746   0.95734   0.51109  -0.09112
C          C       0.19282   0.00240   0.43726  -0.08490
C          C       0.61414  -0.00105   0.36204   0.55615
C          C       0.32807   0.98952   0.24008  -0.23278
C          C       0.44752   0.95881   0.22036   0.29799
C          C       0.43403   0.92575   0.13689  -0.24908
C          C       0.30599   0.92749   0.07740   0.09948
C          C       0.20479   0.98806   0.17645   0.09252
Br         Br      0.18567   0.03308   0.89361  -0.59134
Br         Br      0.29333   0.46615   0.10650  -0.59419
Br         Br      0.81434   0.96692   0.10639  -0.59138
Br         Br      0.70668   0.53385   0.89351  -0.59421
N          N       0.05104   0.13477   0.08400  -0.26219
N          N       0.26855   0.46511   0.35916  -0.15858
N          N       0.21362   0.35858   0.24371  -0.41179
N          N       0.90418   0.45896   0.09574  -0.25849
N          N       0.65714   0.48963   0.40735  -0.16285
N          N       0.70104   0.45954   0.27857  -0.40246
N          N       0.96764   0.36523   0.91646  -0.26240
N          N       0.90937   0.03494   0.64148  -0.16055
N          N       0.97014   0.14113   0.75721  -0.41374
N          N       0.80791   0.04126   0.90395  -0.25816
N          N       0.24950   0.01048   0.59224  -0.16196
N          N       0.42188   0.04009   0.72127  -0.40194
N          N       0.94897   0.86523   0.91601  -0.26199
N          N       0.73146   0.53489   0.64084  -0.15844
N          N       0.78639   0.64142   0.75629  -0.41190
N          N       0.09583   0.54104   0.90426  -0.25861
N          N       0.34287   0.51038   0.59265  -0.16287
N          N       0.29897   0.54046   0.72143  -0.40240
N          N       0.03237   0.63477   0.08355  -0.26235
N          N       0.09064   0.96506   0.35852  -0.16068
N          N       0.02987   0.85888   0.24279  -0.41382
N          N       0.19210   0.95874   0.09605  -0.25849
N          N       0.75051   0.98952   0.40776  -0.16208
N          N       0.57813   0.95991   0.27873  -0.40197
O          O       0.11096   0.35971   0.34952  -0.50595
O          O       0.86008   0.53935   0.39243  -0.49478
O          O       0.76395   0.14263   0.65070  -0.50623
O          O       0.46764   0.96080   0.60712  -0.49565
O          O       0.88905   0.64029   0.65049  -0.50555
O          O       0.13993   0.46065   0.60757  -0.49525
O          O       0.23606   0.85737   0.34931  -0.50597
O          O       0.53237   0.03920   0.39288  -0.49593

