data_crystal

_audit_creation_method 'AiiDA-DDEC plugin'

_cell_length_a         7.24739
_cell_length_b        14.86489
_cell_length_c        23.07115

_cell_angle_alpha     89.97860
_cell_angle_beta     90.07865
_cell_angle_gamma     95.59557

_symmetry_space_group_name_Hall 'P 1'
_symmetry_space_group_name_H-M  'P 1'

loop_
_symmetry_equiv_pos_as_xyz
 'x,y,z'

loop_
_atom_site_label
_atom_site_type_symbol
_atom_site_fract_x
_atom_site_fract_y
_atom_site_fract_z
_atom_site_charge
Rb         Rb      0.70949   0.99395   0.43390   0.89113
Rb         Rb      0.59602   0.77524   0.03507   0.92931
Rb         Rb      0.00115   0.39144   0.12612   0.91372
Rb         Rb      0.79029   0.00775   0.93343   0.89077
Rb         Rb      0.90439   0.22470   0.53513   0.92783
Rb         Rb      0.49701   0.60830   0.62496   0.91360
Rb         Rb      0.29052   0.00606   0.56610   0.89111
Rb         Rb      0.40398   0.22476   0.96492   0.92931
Rb         Rb     -0.00115   0.60857   0.87388   0.91367
Rb         Rb      0.20972   0.99226   0.06657   0.89075
Rb         Rb      0.09561   0.77530   0.46487   0.92779
Rb         Rb      0.50300   0.39170   0.37503   0.91361
H          H       0.77358   0.16731   0.33937   0.35375
H          H       0.65904   0.60138   0.14501   0.34833
H          H       0.47496   0.85523   0.28693   0.10913
H          H       0.72031   0.22110   0.15168   0.10825
H          H       0.67198   0.60380   0.33797   0.11033
H          H       0.00924   0.79821   0.95680   0.38959
H          H       0.98193   0.71882   0.00079   0.37103
H          H       0.59148   0.41362   0.13341   0.36299
H          H       0.47140   0.32380   0.12703   0.38184
H          H       0.75816   0.40770   0.25372   0.34455
H          H       0.78031   0.94962   0.27394   0.12835
H          H       0.49151   0.81047   0.18252   0.13910
H          H       0.74790   0.93413   0.16597   0.12214
H          H       0.72601   0.83276   0.83942   0.35442
H          H       0.83679   0.40142   0.64444   0.34988
H          H       0.02642   0.14616   0.78477   0.10782
H          H       0.77774   0.77879   0.65173   0.10929
H          H       0.82691   0.39634   0.83716   0.11106
H          H       0.49108   0.20097   0.45639   0.38943
H          H       0.51577   0.28018   0.50044   0.37196
H          H       0.90719   0.58647   0.63481   0.36338
H          H       0.03010   0.67583   0.62830   0.38224
H          H       0.73212   0.59258   0.75366   0.34375
H          H       0.72068   0.05049   0.77391   0.12826
H          H       0.00859   0.19203   0.68093   0.13886
H          H       0.75330   0.06600   0.66600   0.12259
H          H       0.22642   0.83269   0.66063   0.35381
H          H       0.34096   0.39862   0.85499   0.34840
H          H       0.52504   0.14477   0.71307   0.10904
H          H       0.27969   0.77891   0.84832   0.10804
H          H       0.32802   0.39620   0.66203   0.11057
H          H       0.99076   0.20179   0.04319   0.38946
H          H       0.01807   0.28119  -0.00080   0.37126
H          H       0.40852   0.58638   0.86660   0.36310
H          H       0.52860   0.67620   0.87298   0.38218
H          H       0.24185   0.59230   0.74627   0.34458
H          H       0.21969   0.05039   0.72606   0.12878
H          H       0.50849   0.18953   0.81748   0.13884
H          H       0.25210   0.06588   0.83403   0.12216
H          H       0.27400   0.16725   0.16057   0.35454
H          H       0.16321   0.59858   0.35556   0.34976
H          H       0.97359   0.85385   0.21522   0.10804
H          H       0.22227   0.22122   0.34826   0.10942
H          H       0.17309   0.60367   0.16283   0.11113
H          H       0.50892   0.79904   0.54361   0.38958
H          H       0.48423   0.71982   0.49956   0.37205
H          H       0.09282   0.41354   0.36519   0.36370
H          H       0.96991   0.32417   0.37170   0.38218
H          H       0.26788   0.40742   0.24633   0.34386
H          H       0.27933   0.94951   0.22609   0.12837
H          H       0.99142   0.80798   0.31906   0.13883
H          H       0.24670   0.93401   0.33400   0.12237
C          C       0.76214   0.17204   0.23812  -0.19801
C          C       0.64145   0.62276   0.24584  -0.20177
C          C       0.77025   0.09369   0.27289   0.32910
C          C       0.59664   0.68384   0.20181   0.32975
C          C       0.76951   0.00852   0.24655  -0.20896
C          C       0.53459   0.76712   0.21704  -0.19976
C          C       0.75116   0.00000   0.18677  -0.06102
C          C       0.52344   0.79087   0.27493  -0.05546
C          C       0.73244   0.07689   0.15270  -0.11102
C          C       0.57459   0.73224   0.31868  -0.11089
C          C       0.73937   0.16200   0.17806  -0.07797
C          C       0.63137   0.64884   0.30417  -0.07868
C          C       0.77331   0.26250   0.26541   0.59821
C          C       0.69582   0.53342   0.22973   0.60230
C          C       0.73624   0.82792   0.73810  -0.19770
C          C       0.85618   0.37838   0.74507  -0.20139
C          C       0.72969   0.90634   0.77288   0.32766
C          C       0.90288   0.31852   0.70060   0.32993
C          C       0.73114   0.99156   0.74654  -0.20857
C          C       0.96564   0.23520   0.71552  -0.20114
C          C       0.74978   0.00009   0.68678  -0.06143
C          C       0.97756   0.21071   0.77337  -0.05453
C          C       0.76765   0.92313   0.65272  -0.11015
C          C       0.92696   0.26860   0.81752  -0.10833
C          C       0.75924   0.83796   0.67808  -0.07826
C          C       0.86833   0.35182   0.80326  -0.08055
C          C       0.72311   0.73747   0.76543   0.60009
C          C       0.79659   0.46699   0.72955   0.59947
C          C       0.23786   0.82796   0.76188  -0.19783
C          C       0.35855   0.37724   0.75416  -0.20174
C          C       0.22975   0.90632   0.72711   0.32897
C          C       0.40337   0.31616   0.79818   0.32993
C          C       0.23050   0.99148   0.75345  -0.20907
C          C       0.46542   0.23288   0.78296  -0.19994
C          C       0.24884  -0.00000   0.81322  -0.06079
C          C       0.47656   0.20913   0.72506  -0.05547
C          C       0.26756   0.92312   0.84730  -0.11125
C          C       0.42542   0.26776   0.68131  -0.11090
C          C       0.26063   0.83801   0.82194  -0.07810
C          C       0.36863   0.35117   0.69583  -0.07858
C          C       0.22670   0.73750   0.73459   0.59803
C          C       0.30419   0.46659   0.77027   0.60237
C          C       0.26377   0.17208   0.26190  -0.19748
C          C       0.14382   0.62162   0.25493  -0.20169
C          C       0.27031   0.09367   0.22711   0.32783
C          C       0.09712   0.68149   0.29940   0.33012
C          C       0.26886   0.00845   0.25346  -0.20892
C          C       0.03436   0.76480   0.28447  -0.20121
C          C       0.25023  -0.00008   0.31321  -0.06143
C          C       0.02244   0.78929   0.22663  -0.05459
C          C       0.23235   0.07687   0.34727  -0.11009
C          C       0.07304   0.73140   0.18248  -0.10808
C          C       0.24076   0.16205   0.32192  -0.07851
C          C       0.13168   0.64818   0.19674  -0.08051
C          C       0.27690   0.26254   0.23456   0.59986
C          C       0.20341   0.53302   0.27044   0.59959
S          S       0.69514   0.06720   0.07684   1.17681
S          S       0.58416   0.76921   0.39186   1.16915
S          S       0.80491   0.93280   0.57688   1.17684
S          S       0.91847   0.23196   0.89091   1.17141
S          S       0.30486   0.93281   0.92315   1.17698
S          S       0.41585   0.23080   0.60814   1.16890
S          S       0.19509   0.06720   0.42312   1.17695
S          S       0.08154   0.76804   0.10909   1.17114
O          O       0.93561   0.73929   0.96307  -0.86536
O          O       0.77730   0.09991   0.33116  -0.48590
O          O       0.61063   0.66330   0.14512  -0.47633
O          O       0.56416   0.36362   0.10605  -0.81330
O          O       0.62739   0.97172   0.06536  -0.68465
O          O       0.44420   0.83531   0.39746  -0.67590
O          O       0.55931   0.13192   0.06243  -0.66661
O          O       0.77630   0.81323   0.39989  -0.69669
O          O       0.88012   0.09114   0.04869  -0.68790
O          O       0.54586   0.68676   0.42828  -0.62248
O          O       0.78745   0.33184   0.23146  -0.55943
O          O       0.72290   0.47700   0.27158  -0.53165
O          O       0.76874   0.26847   0.32073  -0.57421
O          O       0.71406   0.51336   0.17653  -0.56125
O          O       0.56445   0.25989   0.46302  -0.86858
O          O       0.72267   0.90013   0.83115  -0.48528
O          O       0.88972   0.34048   0.64397  -0.47960
O          O       0.93568   0.63651   0.60764  -0.81486
O          O       0.87270   0.02821   0.56536  -0.68296
O          O       0.05508   0.16422   0.89692  -0.67781
O          O       0.94037   0.86793   0.56250  -0.66586
O          O       0.72467   0.19067   0.89965  -0.69719
O          O       0.61980   0.90890   0.54866  -0.68890
O          O       0.96308   0.31447   0.92667  -0.62412
O          O       0.70361   0.66809   0.73152  -0.55676
O          O       0.76836   0.52284   0.77152  -0.53123
O          O       0.73126   0.73149   0.82068  -0.57595
O          O       0.77506   0.48687   0.67640  -0.56287
O          O       0.06440   0.26072   0.03692  -0.86551
O          O       0.22271   0.90009   0.66883  -0.48562
O          O       0.38938   0.33670   0.85488  -0.47666
O          O       0.43584   0.63639   0.89395  -0.81375
O          O       0.37261   0.02829   0.93463  -0.68445
O          O       0.55581   0.16469   0.60254  -0.67596
O          O       0.44069   0.86809   0.93757  -0.66687
O          O       0.22370   0.18677   0.60011  -0.69685
O          O       0.11989   0.90886   0.95131  -0.68823
O          O       0.45415   0.31325   0.57172  -0.62190
O          O       0.21255   0.66817   0.76853  -0.55966
O          O       0.27711   0.52300   0.72842  -0.53142
O          O       0.23126   0.73153   0.67927  -0.57395
O          O       0.28594   0.48664   0.82347  -0.56153
O          O       0.43555   0.74012   0.53697  -0.86885
O          O       0.27733   0.09988   0.16885  -0.48529
O          O       0.11029   0.65953   0.35603  -0.47986
O          O       0.06432   0.36350   0.39236  -0.81514
O          O       0.12730   0.97179   0.43463  -0.68339
O          O       0.94493   0.83578   0.10308  -0.67759
O          O       0.05964   0.13207   0.43750  -0.66579
O          O       0.27533   0.80933   0.10035  -0.69698
O          O       0.38020   0.09111   0.45133  -0.68889
O          O       0.03693   0.68554   0.07333  -0.62416
O          O       0.29640   0.33191   0.26848  -0.55681
O          O       0.23164   0.47716   0.22848  -0.53113
O          O       0.26874   0.26851   0.17932  -0.57555
O          O       0.22494   0.51313   0.32360  -0.56320

