data_crystal

_audit_creation_method 'AiiDA-DDEC plugin'

_cell_length_a         6.59320
_cell_length_b        21.45682
_cell_length_c        21.45683

_cell_angle_alpha     89.99955
_cell_angle_beta     90.00000
_cell_angle_gamma     90.00000

_symmetry_space_group_name_Hall 'P 1'
_symmetry_space_group_name_H-M  'P 1'

loop_
_symmetry_equiv_pos_as_xyz
 'x,y,z'

loop_
_atom_site_label
_atom_site_type_symbol
_atom_site_fract_x
_atom_site_fract_y
_atom_site_fract_z
_atom_site_charge
Al         Al      0.00000   0.24936   0.75064   1.67524
Al         Al     -0.00000   0.75064   0.24936   1.67522
Al         Al     -0.00000   0.75064   0.75064   1.67496
Al         Al      0.00000   0.24936   0.24936   1.67510
Al         Al      0.50000   0.25268   0.74732   1.66288
Al         Al      0.50000   0.74732   0.25268   1.66284
Al         Al      0.50000   0.74733   0.74733   1.66300
Al         Al      0.50000   0.25267   0.25267   1.66293
H          H       0.52731   0.05803   0.20572   0.12335
H          H       0.95585   0.11545   0.33221   0.10767
H          H       0.70929   0.05831   0.39568   0.10317
H          H       0.52731   0.94197   0.79428   0.12343
H          H       0.95585   0.88454   0.66779   0.10774
H          H       0.70929   0.94169   0.60433   0.10321
H          H       0.51351   0.30335   0.55825   0.12685
H          H       0.88460   0.20200   0.61517   0.11944
H          H       0.61566   0.14831   0.55831   0.10270
H          H       0.51351   0.69665   0.44175   0.12692
H          H       0.88460   0.79800   0.38483   0.11934
H          H       0.61566   0.85169   0.44169   0.10265
H          H       0.48649   0.44175   0.69665   0.12689
H          H       0.11540   0.38483   0.79800   0.11946
H          H       0.38434   0.44169   0.85169   0.10270
H          H       0.48648   0.55825   0.30335   0.12692
H          H       0.11540   0.61517   0.20200   0.11936
H          H       0.38434   0.55831   0.14831   0.10266
H          H       0.47269   0.20572   0.05803   0.12337
H          H       0.04415   0.33221   0.11546   0.10768
H          H       0.29071   0.39568   0.05831   0.10322
H          H       0.47269   0.79428   0.94198   0.12327
H          H       0.04415   0.66779   0.88455   0.10768
H          H       0.29071   0.60432   0.94169   0.10321
H          H       0.48648   0.44174   0.30335   0.12679
H          H       0.11541   0.38483   0.20200   0.11937
H          H       0.38434   0.44169   0.14831   0.10260
H          H       0.48648   0.55825   0.69666   0.12674
H          H       0.11541   0.61517   0.79800   0.11926
H          H       0.38434   0.55831   0.85169   0.10260
H          H       0.47269   0.20572   0.94198   0.12338
H          H       0.04415   0.33221   0.88455   0.10759
H          H       0.29070   0.39567   0.94169   0.10298
H          H       0.47269   0.79428   0.05803   0.12336
H          H       0.04415   0.66779   0.11546   0.10769
H          H       0.29071   0.60432   0.05831   0.10315
H          H       0.52731   0.05802   0.79428   0.12333
H          H       0.95585   0.11545   0.66779   0.10760
H          H       0.70929   0.05831   0.60432   0.10310
H          H       0.52731   0.94197   0.20572   0.12333
H          H       0.95585   0.88454   0.33221   0.10772
H          H       0.70929   0.94169   0.39568   0.10324
H          H       0.51352   0.30334   0.44175   0.12673
H          H       0.88460   0.20200   0.38483   0.11937
H          H       0.61566   0.14831   0.44169   0.10264
H          H       0.51352   0.69665   0.55826   0.12682
H          H       0.88460   0.79800   0.61518   0.11942
H          H       0.61566   0.85169   0.55831   0.10267
H          H       0.26159   0.27366   0.17527   0.42616
H          H       0.26158   0.72633   0.82473   0.42626
H          H       0.26160   0.27365   0.82472   0.42636
H          H       0.26160   0.72635   0.17528   0.42624
H          H       0.73840   0.17528   0.72635   0.42635
H          H       0.73840   0.82472   0.27366   0.42626
H          H       0.73841   0.17527   0.27366   0.42621
H          H       0.73841   0.82473   0.72634   0.42611
C          C       0.25218   0.13559   0.25135   0.64400
C          C       0.25192   0.06605   0.25791  -0.07908
C          C       0.09660   0.03369   0.29201   0.05300
C          C       0.40664   0.03276   0.22925  -0.09778
C          C       0.95170   0.06506   0.32986  -0.13879
C          C       0.81414   0.03277   0.36607  -0.07785
C          C       0.25218   0.86440   0.74865   0.64366
C          C       0.25192   0.93395   0.74210  -0.07884
C          C       0.09660   0.96630   0.70799   0.05284
C          C       0.40664   0.96724   0.77075  -0.09772
C          C       0.95170   0.93493   0.67015  -0.13871
C          C       0.81414   0.96722   0.63394  -0.07787
C          C       0.24622   0.25606   0.63577   0.63909
C          C       0.23073   0.25534   0.56606  -0.07704
C          C       0.06094   0.22767   0.53377   0.04594
C          C       0.38712   0.28314   0.53271  -0.09340
C          C       0.89398   0.19900   0.56496  -0.13187
C          C       0.74131   0.16895   0.53270  -0.08510
C          C       0.24621   0.74394   0.36423   0.63917
C          C       0.23073   0.74465   0.43394  -0.07707
C          C       0.06094   0.77232   0.46624   0.04599
C          C       0.38712   0.71685   0.46729  -0.09342
C          C       0.89398   0.80100   0.43505  -0.13183
C          C       0.74131   0.83105   0.46731  -0.08535
C          C       0.75378   0.36423   0.74394   0.63897
C          C       0.76927   0.43394   0.74466  -0.07705
C          C       0.93906   0.46623   0.77233   0.04591
C          C       0.61288   0.46729   0.71686  -0.09335
C          C       0.10602   0.43504   0.80100  -0.13181
C          C       0.25869   0.46730   0.83105  -0.08513
C          C       0.75379   0.63577   0.25606   0.63916
C          C       0.76927   0.56606   0.25535  -0.07709
C          C       0.93906   0.53377   0.22768   0.04598
C          C       0.61288   0.53271   0.28315  -0.09341
C          C       0.10602   0.56495   0.19900  -0.13179
C          C       0.25869   0.53270   0.16895  -0.08535
C          C       0.74782   0.25135   0.13559   0.64382
C          C       0.74808   0.25790   0.06605  -0.07901
C          C       0.90340   0.29201   0.03369   0.05295
C          C       0.59336   0.22925   0.03276  -0.09772
C          C       0.04830   0.32986   0.06507  -0.13870
C          C       0.18586   0.36607   0.03277  -0.07786
C          C       0.74782   0.74864   0.86441   0.64391
C          C       0.74808   0.74209   0.93395  -0.07911
C          C       0.90340   0.70799   0.96631   0.05301
C          C       0.59336   0.77074   0.96724  -0.09774
C          C       0.04830   0.67014   0.93494  -0.13886
C          C       0.18586   0.63393   0.96723  -0.07781
C          C       0.75374   0.36423   0.25606   0.63906
C          C       0.76928   0.43393   0.25534  -0.07718
C          C       0.93906   0.46623   0.22768   0.04601
C          C       0.61288   0.46728   0.28315  -0.09309
C          C       0.10601   0.43504   0.19900  -0.13189
C          C       0.25870   0.46730   0.16895  -0.08516
C          C       0.75373   0.63577   0.74394   0.63915
C          C       0.76928   0.56607   0.74466  -0.07719
C          C       0.93906   0.53377   0.77233   0.04603
C          C       0.61288   0.53271   0.71686  -0.09323
C          C       0.10601   0.56496   0.80100  -0.13185
C          C       0.25870   0.53270   0.83105  -0.08520
C          C       0.74785   0.25135   0.86441   0.64353
C          C       0.74807   0.25790   0.93395  -0.07881
C          C       0.90340   0.29201   0.96631   0.05275
C          C       0.59336   0.22925   0.96724  -0.09774
C          C       0.04831   0.32985   0.93494  -0.13872
C          C       0.18586   0.36606   0.96723  -0.07780
C          C       0.74785   0.74865   0.13560   0.64337
C          C       0.74807   0.74209   0.06605  -0.07884
C          C       0.90340   0.70799   0.03370   0.05284
C          C       0.59336   0.77075   0.03276  -0.09768
C          C       0.04831   0.67014   0.06507  -0.13869
C          C       0.18586   0.63393   0.03277  -0.07783
C          C       0.25215   0.13559   0.74865   0.64370
C          C       0.25193   0.06605   0.74210  -0.07890
C          C       0.09660   0.03369   0.70799   0.05287
C          C       0.40664   0.03276   0.77075  -0.09783
C          C       0.95169   0.06506   0.67014  -0.13881
C          C       0.81414   0.03277   0.63394  -0.07789
C          C       0.25215   0.86440   0.25135   0.64344
C          C       0.25193   0.93395   0.25791  -0.07894
C          C       0.09660   0.96630   0.29201   0.05287
C          C       0.40664   0.96724   0.22926  -0.09777
C          C       0.95169   0.93493   0.32986  -0.13872
C          C       0.81414   0.96722   0.36607  -0.07789
C          C       0.24626   0.25606   0.36423   0.63922
C          C       0.23072   0.25534   0.43393  -0.07728
C          C       0.06094   0.22767   0.46623   0.04608
C          C       0.38712   0.28314   0.46729  -0.09316
C          C       0.89399   0.19900   0.43504  -0.13192
C          C       0.74130   0.16895   0.46730  -0.08528
C          C       0.24627   0.74394   0.63577   0.63909
C          C       0.23072   0.74465   0.56607  -0.07711
C          C       0.06094   0.77232   0.53377   0.04596
C          C       0.38712   0.71685   0.53272  -0.09317
C          C       0.89399   0.80100   0.56496  -0.13188
C          C       0.74130   0.83105   0.53270  -0.08522
O          O       0.07986   0.16251   0.24710  -0.60951
O          O       0.42418   0.16283   0.25035  -0.60858
O          O       0.07986   0.83749   0.75291  -0.60930
O          O       0.42418   0.83716   0.74965  -0.60849
O          O       0.08084   0.25600   0.66624  -0.58490
O          O       0.42260   0.25633   0.66055  -0.58839
O          O       0.08084   0.74400   0.33376  -0.58493
O          O       0.42260   0.74367   0.33945  -0.58846
O          O       0.91916   0.33376   0.74400  -0.58485
O          O       0.57740   0.33945   0.74367  -0.58835
O          O       0.91916   0.66624   0.25600  -0.58493
O          O       0.57740   0.66055   0.25633  -0.58844
O          O       0.92014   0.24709   0.16251  -0.60938
O          O       0.57582   0.25035   0.16283  -0.60854
O          O       0.92014   0.75290   0.83749  -0.60951
O          O       0.57582   0.74965   0.83717  -0.60856
O          O       0.91918   0.33375   0.25600  -0.58509
O          O       0.57741   0.33944   0.25633  -0.58812
O          O       0.91919   0.66624   0.74400  -0.58515
O          O       0.57742   0.66055   0.74368  -0.58818
O          O       0.92012   0.24709   0.83749  -0.60923
O          O       0.57580   0.25034   0.83716  -0.60849
O          O       0.92012   0.75291   0.16251  -0.60918
O          O       0.57579   0.74965   0.16284  -0.60840
O          O       0.07988   0.16250   0.75291  -0.60931
O          O       0.42420   0.16284   0.74965  -0.60856
O          O       0.07988   0.83749   0.24710  -0.60921
O          O       0.42420   0.83716   0.25035  -0.60842
O          O       0.08082   0.25600   0.33376  -0.58519
O          O       0.42259   0.25633   0.33945  -0.58820
O          O       0.08081   0.74400   0.66625  -0.58510
O          O       0.42258   0.74367   0.66056  -0.58814
O          O       0.25114   0.27498   0.22053  -0.98802
O          O       0.25114   0.72502   0.77947  -0.98799
O          O       0.25115   0.27498   0.77946  -0.98820
O          O       0.25115   0.72502   0.22054  -0.98806
O          O       0.74885   0.22054   0.72502  -0.98817
O          O       0.74885   0.77946   0.27498  -0.98806
O          O       0.74886   0.22053   0.27498  -0.98802
O          O       0.74886   0.77947   0.72503  -0.98800

