data_crystal

_audit_creation_method 'AiiDA-DDEC plugin'

_cell_length_a         9.26097
_cell_length_b        13.63126
_cell_length_c        20.53061

_cell_angle_alpha     86.39667
_cell_angle_beta     79.15206
_cell_angle_gamma     70.28180

_symmetry_space_group_name_Hall 'P 1'
_symmetry_space_group_name_H-M  'P 1'

loop_
_symmetry_equiv_pos_as_xyz
 'x,y,z'

loop_
_atom_site_label
_atom_site_type_symbol
_atom_site_fract_x
_atom_site_fract_y
_atom_site_fract_z
_atom_site_charge
Zn         Zn      0.35223   0.75618   0.51104   0.75343
Zn         Zn      0.89272   0.75641   0.98903   0.75355
Zn         Zn      0.64778   0.24382   0.48896   0.75345
Zn         Zn      0.10729   0.24359   0.01098   0.75365
H          H       0.97239   0.30312   0.82836   0.09466
H          H       0.99099   0.38692   0.75878   0.09047
H          H       0.22550   0.49745   0.54776   0.11607
H          H       0.61913   0.66196   0.31089   0.11251
H          H       0.02894   0.40987   0.87888   0.14014
H          H       0.61106   0.74787   0.92135   0.09402
H          H       0.57024   0.61619   0.85427   0.15120
H          H       0.84986   0.00980   0.62929   0.14441
H          H       0.02285   0.85692   0.55827   0.10129
H          H       0.25884   0.09668   0.62955   0.13355
H          H       0.41139   0.94358   0.55812   0.09499
H          H       0.04115   0.26249   0.66218   0.08988
H          H       0.09540   0.17304   0.72857   0.08562
H          H       0.04944   0.54964   0.94363   0.09782
H          H       0.84908   0.74658   0.44846   0.28994
H          H       0.71516   0.68757   0.43787   0.28258
H          H       0.43043   0.01206   0.36696   0.29886
H          H       0.48787   0.07633   0.29748   0.28904
H          H       0.72655   0.30226   0.67078   0.09444
H          H       0.62294   0.38562   0.74047   0.09010
H          H       0.27875   0.49785   0.95068   0.11653
H          H       0.72086   0.66164   0.18946   0.11239
H          H       0.55995   0.40989   0.62160   0.13955
H          H       0.64135   0.74811   0.57910   0.09411
H          H       0.81395   0.61652   0.64576   0.15037
H          H       0.14058   0.01095   0.87039   0.14357
H          H       0.12078   0.85807   0.94148   0.10193
H          H       0.64527   0.09653   0.87063   0.13452
H          H       0.64632   0.94307   0.94189   0.09526
H          H       0.69626   0.26270   0.83757   0.08990
H          H       0.73258   0.17238   0.77135   0.08471
H          H       0.39990   0.54965   0.55726   0.09737
H          H       0.40723   0.74711   0.04989   0.28999
H          H       0.59788   0.68775   0.06245   0.28022
H          H       0.55725   0.01158   0.13250   0.29896
H          H       0.43618   0.07580   0.20194   0.28856
H          H       0.02761   0.69688   0.17164   0.09455
H          H       0.00901   0.61307   0.24122   0.09051
H          H       0.77450   0.50254   0.45224   0.11591
H          H       0.38087   0.33804   0.68911   0.11245
H          H       0.97106   0.59013   0.12112   0.14011
H          H       0.38894   0.25213   0.07865   0.09411
H          H       0.42976   0.38381   0.14573   0.15130
H          H       0.15015   0.99020   0.37071   0.14447
H          H       0.97715   0.14308   0.44173   0.10128
H          H       0.74117   0.90332   0.37045   0.13357
H          H       0.58862   0.05642   0.44188   0.09498
H          H       0.95885   0.73750   0.33782   0.08996
H          H       0.90460   0.82696   0.27143   0.08548
H          H       0.95056   0.45035   0.05637   0.09771
H          H       0.15092   0.25342   0.55154   0.28997
H          H       0.28485   0.31243   0.56213   0.28267
H          H       0.56957   0.98794   0.63304   0.29883
H          H       0.51214   0.92367   0.70252   0.28902
H          H       0.27345   0.69773   0.32922   0.09445
H          H       0.37706   0.61438   0.25953   0.09015
H          H       0.72126   0.50214   0.04933   0.11660
H          H       0.27914   0.33836   0.81054   0.11240
H          H       0.44005   0.59011   0.37840   0.13952
H          H       0.35865   0.25189   0.42090   0.09415
H          H       0.18605   0.38347   0.35424   0.15028
H          H       0.85942   0.98905   0.12962   0.14364
H          H       0.87922   0.14193   0.05852   0.10182
H          H       0.35473   0.90347   0.12937   0.13459
H          H       0.35368   0.05693   0.05811   0.09531
H          H       0.30375   0.73730   0.16243   0.08992
H          H       0.26742   0.82761   0.22865   0.08473
H          H       0.60010   0.45035   0.44274   0.09744
H          H       0.59278   0.25289   0.95011   0.29009
H          H       0.40212   0.31225   0.93755   0.28017
H          H       0.44275   0.98842   0.86750   0.29900
H          H       0.56382   0.92420   0.79806   0.28867
C          C       0.79865   0.50353   0.85851   0.30420
C          C       0.91224   0.35163   0.79041  -0.03629
C          C       0.12593   0.49795   0.52699  -0.21528
C          C       0.09874   0.68159   0.49451   0.57088
C          C       0.60505   0.73462   0.28373  -0.13211
C          C       0.93477   0.48426   0.88470  -0.26137
C          C       0.70184   0.67290   0.90962   0.09214
C          C       0.47681   0.82745   0.39251   0.56578
C          C       0.04103   0.06422   0.63633   0.32395
C          C       0.04477   0.58974   0.49669  -0.14209
C          C       0.91386   0.59279   0.46885   0.25021
C          C       0.53099   0.82931   0.31930  -0.15402
C          C       0.67913   0.59996   0.87222  -0.24421
C          C       0.97429   0.99592   0.61526  -0.23730
C          C       0.06925   0.91092   0.57691   0.09925
C          C       0.20143   0.04544   0.61600  -0.26495
C          C       0.28784   0.95873   0.57674   0.10329
C          C       0.00002   0.21571   0.70225  -0.04406
C          C       0.94622   0.56138   0.92219   0.10879
C          C       0.51281   0.92473   0.28500   0.17114
C          C       0.69784   0.50353   0.64161   0.30559
C          C       0.73718   0.35098   0.70900  -0.03643
C          C       0.37711   0.49815   0.97209  -0.21786
C          C       0.22359   0.68293   0.00309   0.57294
C          C       0.66174   0.73446   0.21647  -0.13344
C          C       0.58037   0.48425   0.61574  -0.26387
C          C       0.62547   0.67300   0.59077   0.08992
C          C       0.69758   0.82657   0.10763   0.56380
C          C       0.89521   0.06476   0.86357   0.32220
C          C       0.36723   0.59027   0.00208  -0.14214
C          C       0.49403   0.59308   0.03086   0.25252
C          C       0.64082   0.82896   0.18076  -0.15289
C          C       0.72112   0.60012   0.62795  -0.24237
C          C       0.03016   0.99681   0.88446  -0.23777
C          C       0.02049   0.91166   0.92278   0.09898
C          C       0.75390   0.04544   0.88394  -0.26385
C          C       0.75445   0.95861   0.92317   0.10416
C          C       0.78457   0.21587   0.79761  -0.04229
C          C       0.49181   0.56136   0.57848   0.11010
C          C       0.56278   0.92454   0.21475   0.16953
C          C       0.20135   0.49647   0.14149   0.30424
C          C       0.08776   0.64837   0.20959  -0.03635
C          C       0.87408   0.50205   0.47301  -0.21515
C          C       0.90126   0.31841   0.50549   0.57102
C          C       0.39495   0.26538   0.71627  -0.13208
C          C       0.06523   0.51573   0.11530  -0.26151
C          C       0.29816   0.32710   0.09038   0.09220
C          C       0.52320   0.17254   0.60749   0.56595
C          C       0.95898   0.93578   0.36367   0.32396
C          C       0.95524   0.41026   0.50331  -0.14227
C          C       0.08614   0.40721   0.53115   0.25046
C          C       0.46901   0.17069   0.68071  -0.15408
C          C       0.32087   0.40004   0.12778  -0.24423
C          C       0.02571   0.00407   0.38474  -0.23734
C          C       0.93075   0.08907   0.42310   0.09935
C          C       0.79857   0.95456   0.38400  -0.26497
C          C       0.71216   0.04127   0.42327   0.10319
C          C      -0.00001   0.78429   0.29775  -0.04406
C          C       0.05379   0.43862   0.07781   0.10880
C          C       0.48719   0.07527   0.71501   0.17101
C          C       0.30216   0.49647   0.35839   0.30554
C          C       0.26282   0.64901   0.29100  -0.03636
C          C       0.62289   0.50184   0.02791  -0.21780
C          C       0.77641   0.31707   0.99691   0.57276
C          C       0.33826   0.26553   0.78354  -0.13352
C          C       0.41963   0.51575   0.38426  -0.26390
C          C       0.37453   0.32699   0.40923   0.08998
C          C       0.30243   0.17343   0.89237   0.56375
C          C       0.10480   0.93524   0.13643   0.32232
C          C       0.63278   0.40972   0.99792  -0.14211
C          C       0.50598   0.40692   0.96914   0.25260
C          C       0.35918   0.17104   0.81925  -0.15285
C          C       0.27888   0.39988   0.37205  -0.24242
C          C       0.96984   0.00319   0.11555  -0.23801
C          C       0.97951   0.08834   0.07722   0.09910
C          C       0.24611   0.95456   0.11606  -0.26379
C          C       0.24555   0.04139   0.07683   0.10417
C          C       0.21543   0.78413   0.20239  -0.04222
C          C       0.50819   0.43864   0.42152   0.11015
C          C       0.43722   0.07545   0.78525   0.16948
C          C       0.85790   0.28467   0.74982   0.06567
C          C       0.14210   0.71533   0.25019   0.06570
N          N       0.83403   0.65560   0.93446  -0.26583
N          N       0.22515   0.89095   0.55813  -0.25625
N          N       0.82813   0.68087   0.43761  -0.62525
N          N       0.44007   0.02106   0.31636  -0.61908
N          N       0.51029   0.65558   0.56613  -0.26513
N          N       0.88485   0.89122   0.94168  -0.25838
N          N       0.49158   0.68140   0.06223  -0.62429
N          N       0.53905   0.02063   0.18308  -0.61728
N          N       0.16597   0.34439   0.06554  -0.26582
N          N       0.77485   0.10905   0.44187  -0.25624
N          N       0.17188   0.31913   0.56239  -0.62535
N          N       0.55993   0.97893   0.68364  -0.61891
N          N       0.48972   0.34441   0.43388  -0.26502
N          N       0.11515   0.10878   0.05832  -0.25855
N          N       0.50842   0.31860   0.93777  -0.62438
N          N       0.46095   0.97937   0.81692  -0.61722
O          O       0.22112   0.66673   0.52153  -0.57925
O          O       0.02882   0.76649   0.46881  -0.54814
O          O       0.77436   0.43443   0.82103  -0.17959
O          O       0.46591   0.73913   0.41771  -0.55079
O          O       0.94254   0.14321   0.67536  -0.17689
O          O       0.44503   0.90684   0.42795  -0.54922
O          O       0.11360   0.66733   0.97821  -0.58121
O          O       0.21329   0.76901   0.02600  -0.54538
O          O       0.79166   0.43438   0.67871  -0.17867
O          O       0.79891   0.73866   0.08304  -0.55022
O          O       0.91435   0.14415   0.82473  -0.17823
O          O       0.64884   0.90492   0.07170  -0.54816
O          O       0.77888   0.33326   0.47847  -0.57946
O          O       0.97118   0.23351   0.53119  -0.54799
O          O       0.22564   0.56556   0.17897  -0.17946
O          O       0.53409   0.26087   0.58229  -0.55095
O          O       0.05746   0.85679   0.32464  -0.17686
O          O       0.55498   0.09315   0.57205  -0.54926
O          O       0.88641   0.33267   0.02180  -0.58110
O          O       0.78671   0.23098   0.97400  -0.54531
O          O       0.20835   0.56562   0.32129  -0.17877
O          O       0.20110   0.26133   0.91696  -0.55031
O          O       0.08565   0.85585   0.17527  -0.17841
O          O       0.35116   0.09508   0.92830  -0.54802

