data_crystal

_audit_creation_method 'AiiDA-DDEC plugin'

_cell_length_a         9.40484
_cell_length_b        17.32057
_cell_length_c        19.11698

_cell_angle_alpha     90.00183
_cell_angle_beta     90.00000
_cell_angle_gamma     89.99597

_symmetry_space_group_name_Hall 'P 1'
_symmetry_space_group_name_H-M  'P 1'

loop_
_symmetry_equiv_pos_as_xyz
 'x,y,z'

loop_
_atom_site_label
_atom_site_type_symbol
_atom_site_fract_x
_atom_site_fract_y
_atom_site_fract_z
_atom_site_charge
Mn         Mn      0.26583   0.19090   0.25560   1.26662
Mn         Mn      0.23465   0.69058   0.24428   1.27001
Mn         Mn      0.26493   0.30967   0.74470   1.28680
Mn         Mn      0.23394   0.80845   0.75640   1.24653
Mn         Mn      0.73463   0.80937   0.74423   1.27352
Mn         Mn      0.76571   0.30863   0.75639   1.24449
Mn         Mn      0.73468   0.69126   0.25586   1.24688
Mn         Mn      0.76552   0.19053   0.24439   1.27036
Mn         Mn      0.38440   0.75079   0.50043   1.25158
Mn         Mn      0.11470   0.24994   0.00009   1.25699
Mn         Mn      0.61450   0.25003   0.49987   1.25076
Mn         Mn      0.88559   0.75085  -0.00038   1.25264
H          H       0.93982   0.94496   0.22313   0.12079
H          H       0.30445   0.93783   0.41007   0.13536
H          H       0.56016   0.44506   0.27691   0.12074
H          H       0.19574   0.43722   0.08991   0.13494
H          H       0.93983   0.55495   0.77685   0.12010
H          H       0.30420   0.56250   0.58999   0.13508
H          H       0.55999   0.05497   0.72304   0.12105
H          H       0.19533   0.06261   0.91012   0.13470
H          H       0.05939   0.05499   0.77685   0.12072
H          H       0.69539   0.06248   0.58973   0.13443
H          H       0.44065   0.55496   0.72303   0.12092
H          H       0.80476   0.56280   0.91031   0.13554
H          H       0.06003   0.44514   0.22321   0.12089
H          H       0.69541   0.43745   0.41004   0.13528
H          H       0.43977   0.94493   0.27688   0.12005
H          H       0.80427   0.93739   0.08996   0.13491
C          C       0.25954   0.08027   0.37262   0.57994
C          C       0.18659   0.01029   0.34132  -0.07036
C          C       0.08182   0.01184   0.28828   0.00835
C          C       0.02084   0.94299   0.26345  -0.12088
C          C       0.06469   0.87159   0.28943   0.00737
C          C       0.17011   0.86965   0.34200  -0.09329
C          C       0.22619   0.93879   0.36847  -0.07817
C          C       0.02663   0.08499   0.25613   0.59838
C          C      -0.00338   0.80006   0.25969   0.58676
C          C       0.22707   0.79717   0.37072   0.62800
C          C       0.24055   0.57976   0.12730   0.57991
C          C       0.31316   0.50995   0.15880  -0.07144
C          C       0.41766   0.51147   0.21193   0.00746
C          C       0.47926   0.44272   0.23659  -0.12082
C          C       0.43666   0.37125   0.21034   0.00790
C          C       0.33092   0.36931   0.15785  -0.09401
C          C       0.27404   0.43839   0.13155  -0.07618
C          C       0.47325   0.58464   0.24380   0.59717
C          C       0.50466   0.29959   0.24027   0.58534
C          C       0.27339   0.29698   0.12919   0.62554
C          C       0.26029   0.42003   0.62774   0.58067
C          C       0.18715   0.48974   0.65894  -0.07252
C          C       0.08232   0.48829   0.71199   0.00588
C          C       0.02061   0.55715   0.73645  -0.12116
C          C       0.06326   0.62863   0.71013   0.00919
C          C       0.16887   0.63037   0.65757  -0.09209
C          C       0.22600   0.56127   0.63159  -0.07840
C          C       0.02713   0.41515   0.74372   0.60081
C          C       0.99518   0.70026   0.74029   0.58696
C          C       0.22557   0.70287   0.62880   0.62470
C          C       0.24212   0.91990   0.87316   0.57882
C          C       0.31408   0.99005   0.84167  -0.06813
C          C       0.41845   0.98832   0.78853   0.01072
C          C       0.47920   0.05714   0.76345  -0.12103
C          C       0.43548   0.12859   0.78935   0.00827
C          C       0.32992   0.13063   0.84187  -0.09557
C          C       0.27391   0.06158   0.86859  -0.07723
C          C       0.47344   0.91504   0.75614   0.59684
C          C       0.50310   0.20030   0.75978   0.58886
C          C       0.27260   0.20306   0.87033   0.63075
C          C       0.74119   0.91988   0.62720   0.57879
C          C       0.81327   0.98974   0.65852  -0.07066
C          C       0.91775   0.98828   0.71169   0.00739
C          C       0.97868   0.05716   0.73644  -0.12312
C          C       0.93582   0.12855   0.71012   0.00913
C          C       0.83042   0.13040   0.65750  -0.09115
C          C       0.77370   0.06127   0.63132  -0.07934
C          C       0.97338   0.91529   0.74378   0.59823
C          C       0.00409   0.20002   0.74027   0.58714
C          C       0.77419   0.20301   0.62867   0.62301
C          C       0.75814   0.41992   0.87322   0.57752
C          C       0.68656   0.49013   0.84165  -0.06786
C          C       0.58226   0.48841   0.78850   0.00982
C          C       0.52135   0.55719   0.76347  -0.12257
C          C       0.56436   0.62864   0.78963   0.00873
C          C       0.66977   0.63067   0.84223  -0.09388
C          C       0.72633   0.56168   0.86871  -0.07826
C          C       0.52703   0.41514   0.75618   0.59807
C          C       0.49605   0.70003   0.75978   0.58650
C          C       0.72687   0.70306   0.87088   0.62728
C          C       0.74218   0.58034   0.37303   0.57687
C          C       0.81372   0.51008   0.34154  -0.06690
C          C       0.91807   0.51170   0.28844   0.00981
C          C       0.97915   0.44291   0.26353  -0.12237
C          C       0.93610   0.37144   0.28964   0.00842
C          C       0.83030   0.36946   0.34208  -0.09405
C          C       0.77386   0.43856   0.36851  -0.07911
C          C       0.97343   0.58484   0.25624   0.59615
C          C       0.00401   0.29982   0.25973   0.58743
C          C       0.77307   0.29705   0.37077   0.62764
C          C       0.75936   0.07985   0.12734   0.57889
C          C       0.68652   0.01009   0.15876  -0.07157
C          C       0.58181   0.01159   0.21181   0.00659
C          C       0.52054   0.94275   0.23649  -0.12161
C          C       0.56348   0.87131   0.21022   0.00880
C          C       0.66898   0.86943   0.15765  -0.09284
C          C       0.72584   0.93853   0.13152  -0.07756
C          C       0.52652   0.08476   0.24388   0.59782
C          C       0.49540   0.79972   0.24022   0.58621
C          C       0.72608   0.79700   0.12876   0.62442
O          O       0.33572   0.07256   0.42478  -0.45910
O          O       0.23523   0.14886   0.34481  -0.55836
O          O       0.10554   0.12195   0.21427  -0.51167
O          O       0.89875   0.10126   0.27190  -0.51610
O          O       0.06753   0.76350   0.21370  -0.52683
O          O       0.87201   0.78455   0.28074  -0.51396
O          O       0.21339   0.73125   0.34318  -0.50578
O          O       0.29654   0.80610   0.42931  -0.59821
O          O       0.16425   0.57143   0.07533  -0.45868
O          O       0.26510   0.64873   0.15475  -0.55612
O          O       0.39421   0.62171   0.28575  -0.50843
O          O       0.60080   0.60104   0.22813  -0.51508
O          O       0.43427   0.26371   0.28674  -0.52825
O          O       0.62877   0.28314   0.21883  -0.51389
O          O       0.28658   0.23110   0.15675  -0.50628
O          O       0.20358   0.30589   0.07057  -0.59955
O          O       0.33512   0.42684   0.57523  -0.45531
O          O       0.23709   0.35087   0.65596  -0.54858
O          O       0.10671   0.37741   0.78509  -0.51785
O          O       0.89933   0.39897   0.72867  -0.51388
O          O       0.06484   0.73571   0.78722  -0.52937
O          O       0.87112   0.71683   0.71866  -0.51607
O          O       0.20976   0.76845   0.65634  -0.50892
O          O       0.29677   0.69396   0.57047  -0.60225
O          O       0.16374   0.92897   0.92458  -0.45445
O          O       0.26949   0.85154   0.84664  -0.56514
O          O       0.39474   0.87844   0.71406  -0.50335
O          O       0.60144   0.89865   0.77193  -0.51840
O          O       0.43147   0.23751   0.71439  -0.52951
O          O       0.62791   0.21554   0.78056  -0.51319
O          O       0.28536   0.26905   0.84246  -0.50386
O          O       0.20434   0.19464   0.92926  -0.59615
O          O       0.66464   0.92703   0.57531  -0.45702
O          O       0.76699   0.85090   0.65513  -0.55561
O          O       0.89434   0.87828   0.78583  -0.51030
O          O       0.10106   0.89887   0.72836  -0.51461
O          O       0.93432   0.23546   0.78718  -0.52995
O          O       0.12840   0.21610   0.71881  -0.52027
O          O       0.79062   0.26858   0.65618  -0.50812
O          O       0.70309   0.19412   0.57026  -0.60255
O          O       0.83643   0.42902   0.92473  -0.45189
O          O       0.73082   0.35155   0.84690  -0.56494
O          O       0.60546   0.37843   0.71405  -0.50645
O          O       0.39906   0.39901   0.77214  -0.52265
O          O       0.56662   0.73632   0.71351  -0.52586
O          O       0.37160   0.71563   0.78089  -0.51358
O          O       0.71323   0.76899   0.84311  -0.50699
O          O       0.79640   0.69433   0.92944  -0.59519
O          O       0.66424   0.57171   0.42467  -0.45079
O          O       0.76973   0.64860   0.34615  -0.56410
O          O       0.89479   0.62153   0.21404  -0.50322
O          O       0.10121   0.60117   0.27213  -0.51629
O          O       0.93311   0.26395   0.21340  -0.52816
O          O       0.12830   0.28360   0.28098  -0.51568
O          O       0.78665   0.23110   0.34323  -0.50723
O          O       0.70350   0.30599   0.42932  -0.59654
O          O       0.83568   0.07161   0.07534  -0.45954
O          O       0.73505   0.14877   0.15490  -0.55636
O          O       0.60536   0.12170   0.28586  -0.51143
O          O       0.39880   0.10117   0.22801  -0.51624
O          O       0.56549   0.76399   0.28693  -0.52475
O          O       0.37133   0.78336   0.21875  -0.51534
O          O       0.71146   0.73127   0.15617  -0.50756
O          O       0.79697   0.80626   0.07040  -0.60200

