data_crystal

_audit_creation_method 'AiiDA-DDEC plugin'

_cell_length_a        15.88929
_cell_length_b        16.39440
_cell_length_c        17.75857

_cell_angle_alpha     113.15313
_cell_angle_beta     113.39109
_cell_angle_gamma     95.89048

_symmetry_space_group_name_Hall 'P 1'
_symmetry_space_group_name_H-M  'P 1'

loop_
_symmetry_equiv_pos_as_xyz
 'x,y,z'

loop_
_atom_site_label
_atom_site_type_symbol
_atom_site_fract_x
_atom_site_fract_y
_atom_site_fract_z
_atom_site_charge
Cd         Cd      0.37415   0.66371   0.95871   1.13701
Cd         Cd      0.22152   0.45142   0.92356   1.01625
Cd         Cd      0.58708   0.81080   0.98880   1.01309
Cd         Cd      0.03112   0.28895   0.90739   1.13430
Cd         Cd      0.85259   0.08058   0.85343   1.01782
Cd         Cd      0.74924   0.91984   0.92198   1.15506
H          H       0.49930   0.36233   0.25398   0.08574
H          H       0.47286   0.38712   0.34823   0.08660
H          H       0.94753   0.96543   0.66627   0.14410
H          H       0.56539   0.23851   0.39921   0.07888
H          H       0.57244   0.35216   0.47718   0.08960
H          H       0.50884   0.43701   0.13754   0.11973
H          H       0.58425   0.58481   0.60896   0.13681
H          H       0.93138   0.60320   0.45520   0.08217
H          H       0.93496   0.71317   0.53627   0.08653
H          H       0.04568   0.85398   0.45522   0.07486
H          H       0.12034   0.82363   0.53933   0.09115
H          H       0.68181   0.47895   0.25436   0.11692
H          H       0.65661   0.47952   0.37292   0.08013
H          H       0.73993   0.45896   0.46182   0.08691
H          H       0.87467   0.33263   0.59603   0.13788
H          H       0.27794   0.62098   0.76694   0.11148
H          H       0.73683   0.74742   0.26405   0.12931
H          H       0.88516   0.73927   0.32247   0.08474
H          H       0.85652   0.77358   0.41600   0.08962
H          H       0.23513   0.69421   0.66434   0.13722
H          H       0.62808   0.18102   0.64484   0.11139
H          H       0.57912   0.24728   0.53595   0.11155
H          H       0.92278   0.26704   0.70519   0.10800
H          H       0.56598   0.70709   0.15354   0.11261
H          H       0.65067   0.75368   0.72255   0.11298
H          H       0.59678   0.21427   0.26936   0.08530
H          H       0.71658   0.28975   0.35361   0.08600
H          H       0.22349   0.15432   0.67890   0.11006
H          H       0.31360   0.16973   0.60518   0.08488
H          H       0.28415   0.19569   0.51061   0.08843
H          H       0.33707   0.47164   0.76292   0.11481
H          H       0.76346   0.08361   0.12015   0.11165
H          H       0.45295   0.11218   0.46981   0.08047
H          H       0.33888   0.11065   0.39013   0.08983
H          H       0.16264   0.98291   0.57712   0.10834
H          H       0.19341   0.01825   0.47773   0.07920
H          H       0.22335   0.93975   0.39580   0.08582
H          H       0.35028   0.81543   0.26627   0.13497
H          H       0.46731   0.08258   0.60095   0.08867
H          H       0.39709   0.96706   0.50863   0.08601
H          H       0.76551   0.62131   0.49000   0.11415
H          H       0.83372   0.79012   0.60569   0.11444
H          H       0.50645   0.05309   0.21590   0.11067
H          H       0.30076   0.30838   0.65236   0.12750
H          H       0.88810   0.82737   0.22898   0.11215
H          H       0.70091   0.16033   0.22676   0.12937
H          H       0.51641   0.97277   0.63357   0.12922
H          H       0.06041   0.89948   0.34985   0.10895
H          H       0.41599   0.76780   0.15591   0.11311
H          H       0.09108   0.09052   0.24402   0.13653
H          H       0.35056   0.36590   0.21015   0.12599
H          H       0.72603   0.28244   0.01796   0.12451
H          H       0.93488   0.59581   0.58469   0.11190
H          H       0.44154   0.10146   0.32744   0.11015
H          H       0.58742   0.90421   0.73494   0.10796
H          H       0.91797   0.01942   0.12519   0.11505
H          H       0.62761   0.53097   0.80667   0.12191
H          H       0.28856   0.98751   0.70871   0.12375
H          H       0.36396   0.91995   0.81369   0.12351
H          H       0.96501   0.59410   0.32480   0.08653
H          H       0.08388   0.64829   0.42216   0.09167
H          H       0.97871   0.52396   0.68935   0.11838
H          H       0.18124   0.31967   0.09454   0.11023
H          H       0.04975   0.52848   0.27401   0.12397
H          H       0.59154   0.36464   0.69256   0.12317
H          H       0.66344   0.36260   0.12656   0.12703
H          H       0.08562   0.44484   0.14650   0.12310
H          H       0.10334   0.77813   0.24921   0.12111
H          H       0.00704   0.13458   0.76436   0.08817
H          H       0.31925   0.08234   0.16208   0.12455
H          H       0.14665   0.03574   0.04277   0.12365
H          H       0.14349   0.69281   0.12262   0.12245
C          C       0.60320   0.34776   0.36717   0.06174
C          C       0.97954   0.72045   0.43724   0.05552
C          C       0.49970   0.34075   0.30542  -0.03705
C          C       0.52595   0.56989   0.13888  -0.07678
C          C       0.00760   0.00689   0.66868  -0.19285
C          C       0.72417   0.29266   0.55790   0.26455
C          C       0.60522   0.31311   0.43652  -0.03371
C          C       0.55928   0.50503   0.16691  -0.07288
C          C       0.63936   0.63048   0.60942  -0.20255
C          C       0.97179   0.67783   0.49839  -0.03125
C          C       0.77768   0.21854   0.68173  -0.08241
C          C       0.13028   0.56899   0.73634  -0.08485
C          C       0.04611   0.82131   0.49872  -0.02941
C          C       0.08320   0.64935   0.61815   0.26293
C          C       0.65505   0.52786   0.23126  -0.22401
C          C       0.66367   0.45118   0.42108  -0.02953
C          C       0.82125   0.29965   0.60746  -0.19853
C          C       0.20308   0.61725   0.72939  -0.08710
C          C       0.68814   0.67999   0.23868  -0.22425
C          C       0.80096   0.17145   0.74019   0.58314
C          C       0.04982   0.96357   0.61413   0.26429
C          C       0.88019   0.72138   0.37449  -0.03563
C          C       0.17978   0.65718   0.67087  -0.19888
C          C       0.68140   0.21408   0.63335  -0.06123
C          C       0.65403   0.25102   0.57198  -0.24094
C          C       0.84764   0.26304   0.66894  -0.06912
C          C       0.67112   0.59255   0.54343   0.26714
C          C       0.59123   0.65696   0.17551  -0.05365
C          C       0.67773   0.72482   0.67337  -0.07310
C          C       0.64379   0.28677   0.30826  -0.03771
C          C       0.74852   0.78327   0.67267  -0.08143
C          C       0.16239   0.11242   0.67461  -0.06254
C          C       0.33533   0.17235   0.55438  -0.03904
C          C       0.48443   0.51277   0.79109  -0.08067
C          C       0.33369   0.07430   0.49378   0.05916
C          C       0.39282   0.44892   0.74715  -0.05559
C          C       0.68013   0.26845   0.18515   0.25789
C          C       0.74270   0.14541   0.12233  -0.05637
C          C       0.37520   0.07565   0.42921  -0.03118
C          C       0.12787   0.01612   0.61728  -0.24428
C          C       0.78976   0.13274   0.00004   0.57774
C          C       0.75098   0.17923   0.06353  -0.08218
C          C       0.50612   0.61201   0.85718   0.58217
C          C       0.39318   0.96098   0.30478   0.26470
C          C       0.22783   0.01289   0.43390  -0.03037
C          C       0.15167   0.52393   0.79646   0.58107
C          C       0.38431   0.86679   0.25435  -0.19997
C          C       0.39364   0.03404   0.55366  -0.03667
C          C       0.39640   0.98325   0.66339   0.25684
C          C       0.08619   0.00042   0.30468   0.26501
C          C       0.74204   0.64965   0.54206  -0.23995
C          C       0.77974   0.74436   0.60645  -0.06120
C          C       0.44413   0.32628   0.66423   0.25731
C          C       0.89160   0.91795   0.16942  -0.08187
C          C       0.16048   0.25962   0.78959   0.58664
C          C       0.13723   0.51006   0.04987   0.58082
C          C       0.46559   0.90806   0.17791  -0.08180
C          C       0.47244   0.00162   0.22771  -0.06418
C          C       0.42329   0.54650   0.07101   0.58202
C          C       0.37219   0.35594   0.68412  -0.22918
C          C       0.93333   0.88514   0.23317  -0.05883
C          C       0.70733   0.18913   0.18301  -0.23038
C          C       0.48119   0.96056   0.67117  -0.22386
C          C       0.02995   0.92550   0.30067  -0.23911
C          C       0.42040   0.84068   0.19170  -0.08095
C          C       0.51021   0.88443   0.11589   0.58255
C          C       0.04592   0.03287   0.24008  -0.20317
C          C       0.52445   0.86694   0.84292   0.57897
C          C       0.78738   0.88511   0.73655   0.58849
C          C       0.30711   0.29359   0.17464  -0.22959
C          C       0.72112   0.25746   0.06491  -0.06455
C          C       0.00974   0.60143   0.62422  -0.23186
C          C       0.43636   0.02873   0.29059  -0.23759
C          C       0.78678   0.87734   0.10477   0.58567
C          C       0.34559   0.22655   0.19394   0.25942
C          C       0.52177   0.92197   0.72910  -0.06426
C          C       0.94935   0.99200   0.17315  -0.07276
C          C       0.55630   0.48148   0.77147  -0.06888
C          C       0.15222   0.17425   0.06084  -0.07913
C          C       0.12067   0.15720   0.72915  -0.07819
C          C       0.11587   0.56288   0.12596  -0.07819
C          C       0.35363   0.96853   0.71466  -0.20979
C          C       0.47980   0.90664   0.78036  -0.08430
C          C       0.71979   0.61521   0.26701   0.25889
C          C       0.39551   0.93103   0.77288  -0.06583
C          C       0.02083   0.66118   0.37840  -0.04006
C          C       0.03409   0.56144   0.68314  -0.06055
C          C       0.21073   0.26702   0.10852  -0.06825
C          C       0.06875   0.56509   0.24100  -0.23653
C          C       0.53661   0.38934   0.70839  -0.21344
C          C       0.68619   0.30197   0.12515  -0.21215
C          C       0.08959   0.51783   0.16951  -0.06736
C          C       0.07252   0.65871   0.26848   0.26433
C          C       0.10045   0.70538   0.22652  -0.21294
C          C       0.04970   0.14546   0.99094   0.57563
C          C       0.04305   0.10267   0.72520  -0.07185
C          C       0.28779   0.13327   0.14647  -0.20899
C          C       0.19224   0.10765   0.08039  -0.06742
C          C       0.12221   0.65769   0.15597  -0.06535
O          O       0.89181   0.18551   0.79617  -0.64199
O          O       0.73611   0.11524   0.73451  -0.50026
O          O       0.70480   0.32852   0.49712  -0.20281
O          O       0.81296   0.63013   0.32947  -0.20719
O          O       0.43934   0.24582   0.25835  -0.20441
O          O       0.06881   0.69103   0.56267  -0.20201
O          O       0.00914   0.86913   0.55961  -0.19946
O          O       0.62707   0.49930   0.48278  -0.20539
O          O       0.13154   0.29928   0.85191  -0.65042
O          O       0.12827   0.42245   0.02611  -0.63885
O          O       0.39232   0.61313   0.06045  -0.62958
O          O       0.56968   0.94484   0.12103  -0.49720
O          O       0.43515   0.64145   0.86328  -0.64090
O          O       0.48854   0.79557   0.05560  -0.64375
O          O       0.83722   0.93813   0.72396  -0.51050
O          O       0.82647   0.06782   0.00898  -0.63062
O          O       0.76635   0.92161   0.80469  -0.64696
O          O       0.22136   0.30930   0.78501  -0.50772
O          O       0.24223   0.54716   0.86088  -0.63614
O          O       0.74709   0.89630   0.03563  -0.64399
O          O       0.59685   0.83733   0.84152  -0.63568
O          O       0.73395   0.82767   0.11774  -0.50648
O          O       0.59207   0.66563   0.90333  -0.52759
O          O       0.78711   0.15893   0.94092  -0.52532
O          O       0.36933   0.46256   0.02726  -0.52604
O          O       0.01253   0.20919   0.97732  -0.63487
O          O      -0.00188   0.06141   0.94675  -0.52202
O          O       0.64636   0.31821   0.24384  -0.20480
O          O       0.35797   0.97971   0.36671  -0.20382
O          O       0.43086   0.23629   0.60244  -0.20671
O          O       0.35014   0.02033   0.60692  -0.20384
O          O       0.08811   0.46382   0.78724  -0.50860
O          O       0.18098   0.04669   0.36950  -0.20300
O          O       0.49012   0.86160   0.89489  -0.52267
O          O       0.16642   0.55112   0.01359  -0.52456
O          O       0.04880   0.70950   0.33537  -0.20617

