data_crystal

_audit_creation_method 'AiiDA-DDEC plugin'

_cell_length_a        13.43819
_cell_length_b        17.94742
_cell_length_c        12.45961

_cell_angle_alpha     90.00362
_cell_angle_beta     90.00736
_cell_angle_gamma     90.43971

_symmetry_space_group_name_Hall 'P 1'
_symmetry_space_group_name_H-M  'P 1'

loop_
_symmetry_equiv_pos_as_xyz
 'x,y,z'

loop_
_atom_site_label
_atom_site_type_symbol
_atom_site_fract_x
_atom_site_fract_y
_atom_site_fract_z
_atom_site_charge
Ca         Ca      0.41024   0.55289   0.44634   1.44825
Ca         Ca      0.24301   0.62359   0.64414   1.48298
Ca         Ca      0.09062   0.05347   0.05180   1.44656
Ca         Ca      0.25938   0.12637   0.85655   1.48246
Ca         Ca      0.58973   0.94713   0.44631   1.44822
Ca         Ca      0.75697   0.87642   0.64414   1.48311
Ca         Ca      0.90940   0.44655   0.05181   1.44626
Ca         Ca      0.74060   0.37364   0.85652   1.48224
Ca         Ca      0.58976   0.44711   0.55366   1.44823
Ca         Ca      0.75699   0.37641   0.35587   1.48297
Ca         Ca      0.90938   0.94653   0.94820   1.44648
Ca         Ca      0.74062   0.87363   0.14346   1.48242
Ca         Ca      0.41027   0.05288   0.55369   1.44822
Ca         Ca      0.24303   0.12358   0.35586   1.48310
Ca         Ca      0.09060   0.55345   0.94819   1.44631
Ca         Ca      0.25940   0.62636   0.14348   1.48231
H          H       0.23807   0.31844   0.71520   0.13289
H          H       0.44119   0.29331   0.38031   0.16929
H          H       0.26015   0.82009   0.78270   0.13215
H          H       0.05933   0.79425   0.11928   0.16920
H          H       0.76193   0.18157   0.71519   0.13269
H          H       0.55882   0.20666   0.38038   0.16908
H          H       0.73984   0.67990   0.78271   0.13198
H          H       0.94067   0.70575   0.11928   0.16937
H          H       0.76193   0.68156   0.28480   0.13288
H          H       0.55881   0.70669   0.61969   0.16928
H          H       0.73985   0.17991   0.21730   0.13215
H          H       0.94068   0.20575   0.88072   0.16917
H          H       0.23807   0.81843   0.28481   0.13262
H          H       0.44118   0.79334   0.61963   0.16916
H          H       0.26016   0.32010   0.21729   0.13209
H          H       0.05933   0.29425   0.88072   0.16933
C          C       0.33807   0.37218   0.60351  -0.26984
C          C       0.28219   0.31247   0.64248  -0.06064
C          C       0.28638   0.24490   0.58726  -0.30077
C          C       0.35060   0.23497   0.49722   0.34440
C          C       0.39615   0.29833   0.45232  -0.32748
C          C       0.39137   0.36794   0.50416   0.37661
C          C       0.16071   0.87335   0.89445  -0.26811
C          C       0.21597   0.81402   0.85543  -0.05887
C          C       0.21202   0.74659   0.91115  -0.30384
C          C       0.14898   0.73610   0.00233   0.34629
C          C       0.10359   0.79921   0.04665  -0.32882
C          C       0.10818   0.86869   0.99421   0.37845
C          C       0.66192   0.12783   0.60349  -0.26996
C          C       0.71781   0.18752   0.64249  -0.06031
C          C       0.71364   0.25511   0.58734  -0.30033
C          C       0.64948   0.26502   0.49727   0.34368
C          C       0.60382   0.20169   0.45240  -0.32728
C          C       0.60862   0.13209   0.50416   0.37668
C          C       0.83928   0.62664   0.89444  -0.26809
C          C       0.78402   0.68598   0.85544  -0.05877
C          C       0.78796   0.75342   0.91114  -0.30397
C          C       0.85101   0.76390   0.00232   0.34634
C          C       0.89640   0.70079   0.04664  -0.32901
C          C       0.89181   0.63130   0.99420   0.37853
C          C       0.66193   0.62782   0.39649  -0.26991
C          C       0.71781   0.68754   0.35752  -0.06069
C          C       0.71363   0.75510   0.41274  -0.30067
C          C       0.64941   0.76503   0.50278   0.34432
C          C       0.60385   0.70167   0.54768  -0.32748
C          C       0.60863   0.63206   0.49584   0.37674
C          C       0.83930   0.12666   0.10555  -0.26809
C          C       0.78403   0.18598   0.14457  -0.05887
C          C       0.78798   0.25341   0.08886  -0.30378
C          C       0.85102   0.26390  -0.00233   0.34612
C          C       0.89641   0.20079   0.95335  -0.32876
C          C       0.89182   0.13131   0.00579   0.37841
C          C       0.33808   0.87217   0.39651  -0.26994
C          C       0.28219   0.81248   0.35752  -0.06023
C          C       0.28636   0.74489   0.41267  -0.30044
C          C       0.35052   0.73498   0.50274   0.34373
C          C       0.39618   0.79831   0.54760  -0.32735
C          C       0.39138   0.86791   0.49584   0.37667
C          C       0.16072   0.37336   0.10556  -0.26798
C          C       0.21598   0.31402   0.14457  -0.05886
C          C       0.21205   0.24658   0.08886  -0.30387
C          C       0.14899   0.23610  -0.00232   0.34628
C          C       0.10360   0.29921   0.95336  -0.32906
C          C       0.10819   0.36870   0.00580   0.37856
S          S       0.35862   0.45097   0.68365   1.23613
S          S       0.22026   0.16614   0.62806   1.20850
S          S       0.14165   0.95285   0.81553   1.23395
S          S       0.28042   0.66945   0.87207   1.21125
S          S       0.64142   0.04905   0.68368   1.23720
S          S       0.77970   0.33390   0.62804   1.20851
S          S       0.85836   0.54711   0.81554   1.23400
S          S       0.71957   0.83056   0.87206   1.21153
S          S       0.64138   0.54903   0.31635   1.23644
S          S       0.77974   0.83386   0.37194   1.20831
S          S       0.85836   0.04715   0.18447   1.23382
S          S       0.71959   0.33055   0.12794   1.21127
S          S       0.35858   0.95095   0.31632   1.23720
S          S       0.22030   0.66610   0.37196   1.20850
S          S       0.14164   0.45289   0.18446   1.23385
S          S       0.28043   0.16944   0.12794   1.21157
O          O       0.32379   0.51683   0.61377  -0.78534
O          O       0.46889   0.45574   0.69733  -0.65951
O          O       0.30172   0.44494   0.78263  -0.55394
O          O       0.15640   0.18581   0.72010  -0.59038
O          O       0.16780   0.13372   0.53382  -0.63079
O          O       0.29812   0.11124   0.67154  -0.76872
O          O       0.43985   0.42711   0.46617  -0.72116
O          O       0.36444   0.16632   0.45947  -0.72958
O          O       0.18019   0.01794   0.88549  -0.78334
O          O       0.03137   0.95903   0.80442  -0.65992
O          O       0.19702   0.94709   0.71551  -0.55318
O          O       0.34344   0.68954   0.77914  -0.59015
O          O       0.33346   0.64063   0.96793  -0.63364
O          O       0.20523   0.61100   0.83053  -0.77052
O          O       0.06040   0.92764   0.03213  -0.72200
O          O       0.13598   0.66757   0.04178  -0.72873
O          O       0.67623   0.98319   0.61381  -0.78568
O          O       0.53114   0.04426   0.69744  -0.65998
O          O       0.69841   0.05504   0.78260  -0.55405
O          O       0.84361   0.31423   0.72004  -0.59044
O          O       0.83218   0.36628   0.53381  -0.63045
O          O       0.70182   0.38876   0.67159  -0.76894
O          O       0.56019   0.07287   0.46623  -0.72131
O          O       0.63552   0.33365   0.45949  -0.72914
O          O       0.81983   0.48205   0.88553  -0.78328
O          O       0.96863   0.54097   0.80441  -0.65988
O          O       0.80295   0.55278   0.71550  -0.55340
O          O       0.65654   0.81045   0.77914  -0.59028
O          O       0.66654   0.85937   0.96794  -0.63379
O          O       0.79475   0.88900   0.83054  -0.77033
O          O       0.93961   0.57236   0.03211  -0.72207
O          O       0.86402   0.83244   0.04176  -0.72876
O          O       0.67621   0.48317   0.38623  -0.78540
O          O       0.53111   0.54426   0.30268  -0.65972
O          O       0.69828   0.55506   0.21737  -0.55400
O          O       0.84360   0.81419   0.27990  -0.59039
O          O       0.83220   0.86628   0.46618  -0.63057
O          O       0.70188   0.88876   0.32846  -0.76867
O          O       0.56015   0.57289   0.53383  -0.72130
O          O       0.63557   0.83369   0.54053  -0.72949
O          O       0.81981   0.98206   0.11451  -0.78340
O          O       0.96863   0.04097   0.19558  -0.65980
O          O       0.80299   0.05291   0.28449  -0.55314
O          O       0.65656   0.31046   0.22086  -0.59024
O          O       0.66654   0.35937   0.03207  -0.63369
O          O       0.79477   0.38900   0.16947  -0.77038
O          O       0.93961   0.07236   0.96787  -0.72204
O          O       0.86402   0.33243   0.95822  -0.72853
O          O       0.32377   0.01681   0.38619  -0.78560
O          O       0.46886   0.95574   0.30257  -0.65995
O          O       0.30159   0.94496   0.21740  -0.55414
O          O       0.15639   0.68577   0.27995  -0.59050
O          O       0.16782   0.63373   0.46619  -0.63053
O          O       0.29818   0.61124   0.32841  -0.76894
O          O       0.43981   0.92713   0.53377  -0.72121
O          O       0.36448   0.66635   0.54051  -0.72913
O          O       0.18017   0.51795   0.11447  -0.78319
O          O       0.03137   0.45903   0.19559  -0.65987
O          O       0.19705   0.44723   0.28450  -0.55329
O          O       0.34346   0.18955   0.22086  -0.59016
O          O       0.33346   0.14063   0.03206  -0.63389
O          O       0.20525   0.11100   0.16946  -0.77044
O          O       0.06039   0.42764   0.96789  -0.72214
O          O       0.13598   0.16756   0.95824  -0.72881

