data_crystal

_audit_creation_method 'AiiDA-DDEC plugin'

_cell_length_a        13.41189
_cell_length_b        13.41196
_cell_length_c        14.57617

_cell_angle_alpha     89.98580
_cell_angle_beta     90.01438
_cell_angle_gamma     120.04946

_symmetry_space_group_name_Hall 'P 1'
_symmetry_space_group_name_H-M  'P 1'

loop_
_symmetry_equiv_pos_as_xyz
 'x,y,z'

loop_
_atom_site_label
_atom_site_type_symbol
_atom_site_fract_x
_atom_site_fract_y
_atom_site_fract_z
_atom_site_charge
Gd         Gd      0.66674   0.33317   0.33179   2.06823
Gd         Gd      0.33317   0.66673   0.16820   2.06831
Gd         Gd      0.33327   0.66684   0.66820   2.06820
Gd         Gd      0.66684   0.33327   0.83179   2.06831
Cu         Cu      0.50001   0.50000   0.50000   0.83684
Cu         Cu      0.50001   0.00001   0.49999   0.83779
Cu         Cu      0.00001   0.50000   0.50000   0.83641
Cu         Cu      0.50000   0.50000  -0.00000   0.83666
Cu         Cu      0.00001   0.50000   0.00000   0.83762
Cu         Cu      0.50000   0.00000  -0.00000   0.83632
H          H       0.28747   0.25939   0.44695   0.12663
H          H       0.30673   0.16817   0.52509   0.10912
H          H       0.46282   0.25926   0.63122   0.13897
H          H       0.39591   0.31191   0.70394   0.13176
H          H       0.32176   0.35833   0.58336   0.25082
H          H       0.74056   0.02835   0.44702   0.12708
H          H       0.83180   0.13904   0.52508   0.11022
H          H       0.74043   0.20378   0.63134   0.13852
H          H       0.68796   0.08400   0.70398   0.13151
H          H       0.64158   0.96355   0.58328   0.25146
H          H       0.97227   0.71259   0.44691   0.12685
H          H       0.86191   0.69332   0.52517   0.10963
H          H       0.79663   0.53675   0.63108   0.13841
H          H       0.91626   0.60438   0.70384   0.13115
H          H       0.03708   0.67819   0.58330   0.25074
H          H       0.25939   0.28747   0.05305   0.12672
H          H       0.16818   0.30673   0.97490   0.10917
H          H       0.25927   0.46281   0.86877   0.13872
H          H       0.31191   0.39591   0.79605   0.13197
H          H       0.35833   0.32175   0.91663   0.25103
H          H       0.02835   0.74055   0.05297   0.12686
H          H       0.13904   0.83180   0.97492   0.11019
H          H       0.20379   0.74043   0.86865   0.13851
H          H       0.08401   0.68795   0.79602   0.13149
H          H       0.96355   0.64158   0.91671   0.25135
H          H       0.71259   0.97226   0.05309   0.12674
H          H       0.69333   0.86191   0.97482   0.10984
H          H       0.53676   0.79663   0.86892   0.13848
H          H       0.60439   0.91625   0.79616   0.13131
H          H       0.67820   0.03708   0.91670   0.25073
H          H       0.71254   0.74062   0.55305   0.12681
H          H       0.69328   0.83183   0.47490   0.10928
H          H       0.53720   0.74074   0.36878   0.13880
H          H       0.60410   0.68809   0.29606   0.13210
H          H       0.67826   0.64167   0.41664   0.25115
H          H       0.25946   0.97166   0.55297   0.12690
H          H       0.16821   0.86097   0.47492   0.11010
H          H       0.25958   0.79622   0.36866   0.13832
H          H       0.31205   0.91600   0.29602   0.13154
H          H       0.35842   0.03645   0.41671   0.25136
H          H       0.02775   0.28741   0.55309   0.12663
H          H       0.13810   0.30669   0.47483   0.10984
H          H       0.20338   0.46325   0.36892   0.13868
H          H       0.08375   0.39562   0.29616   0.13120
H          H       0.96293   0.32181   0.41670   0.25059
H          H       0.74062   0.71254   0.94695   0.12668
H          H       0.83184   0.69327   0.02510   0.10933
H          H       0.74074   0.53719   0.13122   0.13900
H          H       0.68810   0.60410   0.20394   0.13188
H          H       0.64168   0.67825   0.08336   0.25094
H          H       0.97166   0.25945   0.94702   0.12723
H          H       0.86097   0.16820   0.02508   0.11006
H          H       0.79622   0.25958   0.13134   0.13832
H          H       0.91600   0.31205   0.20398   0.13152
H          H       0.03646   0.35842   0.08329   0.25146
H          H       0.28742   0.02774   0.94691   0.12671
H          H       0.30669   0.13810   0.02517   0.10966
H          H       0.46325   0.20338   0.13108   0.13860
H          H       0.39562   0.08375   0.20384   0.13110
H          H       0.32181   0.96292   0.08330   0.25061
C          C       0.44777   0.26499   0.43261   0.61398
C          C       0.34943   0.25389   0.49296  -0.18254
C          C       0.44844   0.33228   0.64153  -0.21114
C          C       0.56511   0.43858   0.66006   0.65716
C          C       0.73475   0.18282   0.43221   0.61422
C          C       0.74612   0.09592   0.49289  -0.18381
C          C       0.66757   0.11619   0.64158  -0.20985
C          C       0.56125   0.12636   0.66009   0.65780
C          C       0.81749   0.55235   0.43243   0.61470
C          C       0.90479   0.65062   0.49293  -0.18323
C          C       0.88422   0.55164   0.64152  -0.20988
C          C       0.87414   0.43521   0.66032   0.65610
C          C       0.26499   0.44776   0.06739   0.61414
C          C       0.25389   0.34943   0.00704  -0.18288
C          C       0.33228   0.44844   0.85846  -0.21110
C          C       0.43858   0.56511   0.83992   0.65689
C          C       0.18282   0.73475   0.06778   0.61433
C          C       0.09592   0.74611   0.00711  -0.18389
C          C       0.11619   0.66757   0.85842  -0.20967
C          C       0.12638   0.56126   0.83989   0.65753
C          C       0.55236   0.81748   0.06757   0.61470
C          C       0.65062   0.90478   0.00707  -0.18304
C          C       0.55164   0.88421   0.85847  -0.20958
C          C       0.43521   0.87412   0.83966   0.65586
C          C       0.55225   0.73501   0.56739   0.61442
C          C       0.65058   0.74612   0.50704  -0.18269
C          C       0.55157   0.66773   0.35846  -0.21108
C          C       0.43491   0.56142   0.33994   0.65711
C          C       0.26526   0.81718   0.56778   0.61438
C          C       0.25390   0.90408   0.50711  -0.18401
C          C       0.33244   0.88381   0.35842  -0.20982
C          C       0.43876   0.87364   0.33991   0.65751
C          C       0.18253   0.44765   0.56756   0.61461
C          C       0.09522   0.34939   0.50706  -0.18313
C          C       0.11579   0.44837   0.35848  -0.20976
C          C       0.12587   0.56479   0.33968   0.65602
C          C       0.73502   0.55224   0.93260   0.61427
C          C       0.74612   0.65057   0.99296  -0.18269
C          C       0.66773   0.55156   0.14153  -0.21104
C          C       0.56143   0.43489   0.16007   0.65714
C          C       0.81719   0.26526   0.93221   0.61420
C          C       0.90409   0.25389   0.99289  -0.18388
C          C       0.88382   0.33243   0.14158  -0.20988
C          C       0.87363   0.43875   0.16011   0.65771
C          C       0.44765   0.18252   0.93243   0.61450
C          C       0.34939   0.09522   0.99293  -0.18336
C          C       0.44837   0.11579   0.14152  -0.20990
C          C       0.56480   0.12588   0.16034   0.65593
N          N       0.38896   0.34689   0.56139  -0.28146
N          N       0.65311   0.04229   0.56136  -0.28222
N          N       0.95828   0.61107   0.56133  -0.28154
N          N       0.34690   0.38896   0.93860  -0.28144
N          N       0.04229   0.65311   0.93863  -0.28232
N          N       0.61108   0.95827   0.93866  -0.28186
N          N       0.61105   0.65311   0.43860  -0.28153
N          N       0.34690   0.95771   0.43863  -0.28195
N          N       0.04173   0.38893   0.43866  -0.28192
N          N       0.65311   0.61104   0.06140  -0.28165
N          N       0.95772   0.34689   0.06137  -0.28195
N          N       0.38893   0.04173   0.06133  -0.28171
O          O       0.54541   0.35793   0.43972  -0.67404
O          O       0.42944   0.18475   0.37770  -0.58902
O          O       0.60141   0.52530   0.60648  -0.53274
O          O       0.62291   0.43705   0.72800  -0.66556
O          O       0.64182   0.18734   0.43975  -0.67420
O          O       0.81436   0.24448   0.37663  -0.58879
O          O       0.47468   0.07618   0.60638  -0.53331
O          O       0.56264   0.18540   0.72817  -0.66621
O          O       0.81258   0.45467   0.43970  -0.67517
O          O       0.75584   0.57072   0.37728  -0.58893
O          O       0.92395   0.39863   0.60647  -0.53198
O          O       0.81563   0.37782   0.72876  -0.66505
O          O       0.35793   0.54541   0.06028  -0.67410
O          O       0.18475   0.42944   0.12230  -0.58918
O          O       0.52531   0.60141   0.89351  -0.53281
O          O       0.43705   0.62290   0.77200  -0.66506
O          O       0.18734   0.64182   0.06025  -0.67402
O          O       0.24448   0.81435   0.12337  -0.58901
O          O       0.07618   0.47467   0.89362  -0.53336
O          O       0.18539   0.56263   0.77183  -0.66558
O          O       0.45467   0.81257   0.06030  -0.67546
O          O       0.57072   0.75583   0.12272  -0.58870
O          O       0.39864   0.92395   0.89353  -0.53245
O          O       0.37783   0.81563   0.77124  -0.66472
O          O       0.45460   0.64207   0.56028  -0.67445
O          O       0.57057   0.81525   0.62230  -0.58922
O          O       0.39860   0.47471   0.39351  -0.53295
O          O       0.37710   0.56295   0.27200  -0.66561
O          O       0.35819   0.81267   0.56025  -0.67380
O          O       0.18565   0.75552   0.62336  -0.58934
O          O       0.52533   0.92382   0.39362  -0.53286
O          O       0.43737   0.81460   0.27182  -0.66590
O          O       0.18744   0.54534   0.56030  -0.67513
O          O       0.24417   0.42929   0.62272  -0.58869
O          O       0.07606   0.60137   0.39352  -0.53215
O          O       0.18438   0.62218   0.27123  -0.66486
O          O       0.64208   0.45460   0.93971  -0.67450
O          O       0.81526   0.57056   0.87769  -0.58878
O          O       0.47470   0.39860   0.10648  -0.53313
O          O       0.56296   0.37710   0.22799  -0.66539
O          O       0.81267   0.35819   0.93975  -0.67419
O          O       0.75553   0.18565   0.87663  -0.58893
O          O       0.92383   0.52534   0.10638  -0.53328
O          O       0.81462   0.43737   0.22817  -0.66587
O          O       0.54534   0.18743   0.93969  -0.67497
O          O       0.42929   0.24417   0.87728  -0.58865
O          O       0.60137   0.07605   0.10647  -0.53211
O          O       0.62218   0.18437   0.22875  -0.66468

