data_crystal

_audit_creation_method 'AiiDA-DDEC plugin'

_cell_length_a        13.49032
_cell_length_b        15.69213
_cell_length_c        20.40512

_cell_angle_alpha     90.00469
_cell_angle_beta     90.07231
_cell_angle_gamma     94.60033

_symmetry_space_group_name_Hall 'P 1'
_symmetry_space_group_name_H-M  'P 1'

loop_
_symmetry_equiv_pos_as_xyz
 'x,y,z'

loop_
_atom_site_label
_atom_site_type_symbol
_atom_site_fract_x
_atom_site_fract_y
_atom_site_fract_z
_atom_site_charge
Zn         Zn      0.07393   0.55604   0.65397   0.95735
Zn         Zn      0.54714   0.94072   0.56591   0.95523
Zn         Zn      0.92349   0.94565   0.15431   0.95976
Zn         Zn      0.92607   0.44396   0.34602   0.95748
Zn         Zn      0.45286   0.05929   0.43409   0.95520
Zn         Zn      0.07653   0.05431   0.84567   0.96043
Zn         Zn     -0.00001   0.50000   0.49999   1.04605
Zn         Zn      0.54693   0.44001   0.93437   0.95698
Zn         Zn     -0.00056   0.00081   0.00016   1.04031
Zn         Zn      0.45308   0.55999   0.06563   0.95710
H          H       0.96021   0.81465   0.95174   0.11568
H          H       0.81525   0.48085   0.75517   0.13181
H          H       0.52773   0.84306   0.77125   0.14280
H          H       0.24706   0.39142   0.11807   0.13755
H          H       0.70137   0.23398   0.43569   0.14717
H          H       0.49353   0.79754   0.98876   0.37288
H          H       0.29863   0.76602   0.56431   0.14713
H          H       0.29937   0.26516   0.93563   0.14722
H          H       0.18524   0.01904   0.25420   0.13071
H          H       0.47069   0.65921   0.27016   0.14233
H          H       0.50589   0.70433   0.48802   0.37297
H          H       0.75218   0.10740   0.61831   0.13676
H          H       0.71686   0.90096   0.93863   0.12672
H          H       0.70064   0.73485   0.06437   0.14695
H          H       0.52931   0.34079   0.72984   0.14222
H          H       0.71802   0.39861   0.56251   0.12653
H          H       0.49411   0.29568   0.51198   0.37298
H          H       0.18475   0.51916   0.24483   0.13175
H          H       0.96064   0.31274   0.54955   0.11622
H          H       0.81476   0.98096   0.74579   0.13088
H          H       0.47227   0.15694   0.22875   0.14298
H          H       0.99458   0.37597   0.22963   0.36826
H          H       0.24782   0.89261   0.38169   0.13692
H          H       0.28198   0.60140   0.43748   0.12640
H          H       0.28314   0.09905   0.06137   0.12690
H          H       0.03978   0.18541   0.04827   0.11516
H          H       0.99459   0.87837   0.27031   0.36702
H          H       0.75294   0.60859   0.88193   0.13754
H          H       0.00541   0.62404   0.77037   0.36624
H          H       0.00541   0.12164   0.72969   0.36700
H          H       0.03936   0.68727   0.45044   0.11616
H          H       0.50648   0.20247   0.01124   0.37300
C          C       0.25418   0.27103   0.97930  -0.04005
C          C       0.70487   0.79492   0.43838   0.02225
C          C       0.86274   0.21049   0.59163  -0.08123
C          C       0.15405   0.30753   0.60429  -0.14298
C          C       0.12517   0.39658   0.59579   0.62015
C          C       0.71649   0.16620   0.52683  -0.03333
C          C       0.34945   0.57641   0.17873   0.54685
C          C       0.16675   0.21775   0.98754  -0.03488
C          C       0.23449   0.68138   0.88744   0.10521
C          C       0.33075   0.08677   0.24889  -0.02308
C          C       0.15329   0.17095   0.65601  -0.23356
C          C       0.61430   0.86768   0.85923  -0.04925
C          C       0.84492   0.19251   0.10308  -0.14379
C          C       0.84855   0.88843   0.28824   0.58902
C          C       0.22562   0.84296   0.41723  -0.05134
C          C       0.38437   0.63499   0.35817  -0.05101
C          C       0.87434   0.48080   0.62887   0.60558
C          C       0.28351   0.83381   0.47317  -0.03342
C          C       0.76516   0.23378   0.07894   0.06228
C          C       0.22516   0.34173   0.08243  -0.05138
C          C       0.59869   0.36950   0.70946  -0.07215
C          C       0.75889   0.94904   0.77765  -0.08272
C          C       0.67024   0.41235   0.74996  -0.02614
C          C       0.13727   0.78951   0.40837  -0.08114
C          C       0.22356   0.05548   0.15488  -0.04504
C          C       0.32977   0.58765   0.25004  -0.02594
C          C       0.63589   0.82424   0.48974   0.60090
C          C       0.23278   0.26588   0.57885   0.06211
C          C       0.22266   0.55704   0.34406  -0.04540
C          C       0.84866   0.38679   0.21207   0.58980
C          C       0.12566   0.51921   0.37113   0.60563
C          C       0.62476   0.60810   0.98425   0.60052
C          C       0.63293   0.32322   0.01164   0.60235
C          C       0.25365   0.77214   0.52050  -0.04010
C          C       0.62461   0.10718   0.51582   0.60103
C          C       0.66926   0.91323   0.75110  -0.02317
C          C       0.77645   0.94451   0.84511  -0.04508
C          C       0.15134   0.61324   0.78793   0.58995
C          C       0.86587   0.84538   0.06415   0.57896
C          C       0.15145   0.11157   0.71176   0.58921
C          C       0.40275   0.12839   0.20837  -0.07437
C          C       0.77734   0.44297   0.65594  -0.04556
C          C       0.36708   0.67679   0.98836   0.60277
C          C       0.77438   0.15705   0.58276  -0.05162
C          C       0.70183   0.29428   0.06312   0.02150
C          C       0.92705   0.19405   0.64718   0.53916
C          C       0.40131   0.63051   0.29053  -0.07186
C          C       0.15368   0.67212   0.84392  -0.23496
C          C       0.29514   0.20508   0.56162   0.02221
C          C       0.10786   0.72770   0.45575  -0.06433
C          C       0.37539   0.89282   0.48418   0.60118
C          C       0.71663   0.66715   0.97331  -0.03318
C          C       0.77484   0.65828   0.91757  -0.05167
C          C       0.90040   0.75442   0.35524   0.25300
C          C       0.34913   0.07860   0.32055   0.54557
C          C       0.28338   0.33286   0.02669  -0.03303
C          C       0.29819   0.70575   0.93689   0.02156
C          C       0.23295   0.18047   0.61176   0.10335
C          C       0.76722   0.73413   0.42115   0.06154
C          C       0.87450   0.98057   0.87183   0.60549
C          C       0.15500   0.80754   0.89700  -0.14156
C          C       0.36411   0.17576   0.51026   0.60080
C          C       0.29631   0.09597   0.11383  -0.07798
C          C       0.10814   0.22606   0.04340  -0.06320
C          C       0.70482   0.40174   0.61495  -0.07782
C          C       0.92724   0.69599   0.85337   0.54088
C          C       0.16593   0.71931   0.51194  -0.03217
C          C       0.74635   0.22787   0.47950  -0.04008
C          C       0.07275   0.30401   0.14664   0.54088
C          C       0.89990   0.25355   0.14400   0.25350
C          C       0.37525   0.39191   0.01575   0.60020
C          C       0.61563   0.36502   0.64182  -0.05085
C          C       0.87322   0.10380   0.09346   0.62204
C          C       0.89214   0.27231   0.54425  -0.06398
C          C       0.13194   0.65625   0.56326   0.58211
C          C       0.10006   0.74648   0.85603   0.25300
C          C       0.12549   0.01948   0.12816   0.60607
C          C       0.76705   0.81953   0.38824   0.10374
C          C       0.07295   0.80596   0.35282   0.53911
C          C       0.83326   0.78226   0.01246  -0.03448
C          C       0.65086   0.92141   0.67945   0.54526
C          C       0.53444   0.82376   0.90051   0.56681
C          C       0.70370   0.90403   0.88617  -0.07795
C          C       0.13694   0.28793   0.09097  -0.08213
C          C       0.84595   0.69247   0.39571  -0.14285
C          C       0.76553   0.31871   0.11255   0.10463
C          C       0.53553   0.32137   0.60017   0.56417
C          C       0.89187   0.77396   0.95659  -0.06334
C          C       0.46556   0.17625   0.09949   0.56670
C          C       0.84671   0.82905   0.34399  -0.23351
C          C       0.09961   0.24558   0.64475   0.25314
C          C       0.59725   0.87161   0.79163  -0.07410
C          C       0.24111   0.05096   0.22234  -0.08286
C          C       0.75977   0.44807   0.72337  -0.08227
C          C       0.65055   0.42359   0.82127   0.54697
C          C       0.23481   0.76623   0.92109   0.06243
C          C       0.74584   0.72898   0.02070  -0.03994
C          C       0.86806   0.34375   0.43674   0.58210
C          C       0.86306   0.71207   0.90903  -0.08207
C          C       0.83407   0.28069   0.48806  -0.03227
C          C       0.84632   0.32795   0.15606  -0.23509
C          C       0.46448   0.67864   0.39982   0.56418
C          C       0.38571   0.13232   0.14077  -0.04924
C          C       0.13417   0.15467   0.93582   0.58017
C          C       0.87484   0.60342   0.40421   0.62026
C          C       0.24023   0.55193   0.27663  -0.08239
C          C       0.29519   0.59827   0.38505  -0.07801
C          C       0.12670   0.89628   0.90662   0.61993
O          O       0.87984   0.56094   0.35113  -0.51043
O          O       0.55040   0.83143   0.96486  -0.46397
O          O       0.27739   0.06002   0.35852  -0.41097
O          O       0.55128   0.32933   0.53576  -0.46364
O          O       0.55996   0.90953   0.65903  -0.48718
O          O       0.58991   0.60582   0.04234  -0.52477
O          O       0.46144   0.28162   0.62397  -0.44716
O          O       0.78033   0.42883   0.22709  -0.39922
O          O       0.41550   0.23019   0.47729  -0.51606
O          O       0.36487   0.59562   0.99358  -0.51892
O          O       0.58450   0.76982   0.52271  -0.51643
O          O       0.99680   0.74053   0.34000  -0.23715
O          O       0.58973   0.56580   0.93511  -0.54844
O          O       0.89506   0.46255   0.57001  -0.55046
O          O       0.58443   0.26842   0.97722  -0.51834
O          O       0.99614   0.23875   0.15922  -0.23952
O          O       0.64003   0.90529   0.49623  -0.51779
O          O       0.41032   0.93470   0.43483  -0.55122
O          O       0.82004   0.35048   0.38360  -0.49690
O          O       0.41010   0.39419   0.95766  -0.52456
O          O       0.18449   0.14755   0.88384  -0.49501
O          O       0.81555   0.85247   0.11615  -0.49546
O          O       0.91845   0.63243   0.81828  -0.38353
O          O       0.17996   0.64953   0.61640  -0.49692
O          O       0.06953   0.97454   0.16782  -0.54084
O          O       0.92984   0.38559   0.25344  -0.51018
O          O       0.04938   0.60986   0.55502  -0.59002
O          O       0.41028   0.43421   0.06489  -0.54846
O          O       0.78030   0.93068   0.27331  -0.39934
O          O       0.10526   0.91864   0.96392  -0.49251
O          O       0.27954   0.55425   0.13998  -0.41463
O          O       0.12016   0.43907   0.64887  -0.51049
O          O       0.89454   0.08159   0.03607  -0.49571
O          O       0.41558   0.73159   0.02279  -0.51843
O          O       0.12487   0.93970   0.85382  -0.51036
O          O       0.94920   0.89164   0.05753  -0.58810
O          O       0.00321   0.25948   0.65999  -0.23714
O          O       0.58968   0.06531   0.56517  -0.55134
O          O       0.10486   0.03857   0.06931  -0.54887
O          O       0.44873   0.67067   0.46424  -0.46387
O          O       0.07048   0.47278   0.33171  -0.54061
O          O       0.21967   0.57119   0.77292  -0.39940
O          O       0.55941   0.41118   0.84093  -0.48674
O          O       0.89426   0.57965   0.46157  -0.49698
O          O       0.46071   0.78384   0.87623  -0.44903
O          O       0.91860   0.13014   0.68188  -0.38349
O          O       0.41012   0.89593   0.54230  -0.52504
O          O       0.92952   0.88766   0.24662  -0.51116
O          O       0.44004   0.09048   0.34096  -0.48707
O          O       0.21970   0.06932   0.72668  -0.39961
O          O       0.58988   0.10407   0.45770  -0.52475
O          O       0.63513   0.40439   0.00642  -0.51857
O          O       0.35997   0.09471   0.50377  -0.51804
O          O       0.95062   0.39014   0.44498  -0.58993
O          O       0.08140   0.86987   0.31812  -0.38323
O          O       0.00385   0.76126   0.84078  -0.23891
O          O       0.53857   0.71838   0.37603  -0.44679
O          O       0.10574   0.42035   0.53843  -0.49673
O          O       0.05075   0.10847   0.94236  -0.58980
O          O       0.53928   0.21617   0.12377  -0.44862
O          O       0.07048   0.11234   0.75338  -0.51127
O          O       0.07016   0.61441   0.74656  -0.50902
O          O       0.72260   0.93999   0.64147  -0.41057
O          O       0.10495   0.53746   0.42999  -0.55046
O          O       0.44961   0.16858   0.03513  -0.46402
O          O       0.92952   0.52722   0.66829  -0.54048
O          O       0.87516   0.06031   0.14617  -0.51044
O          O       0.44059   0.58882   0.15907  -0.48665
O          O       0.08155   0.36758   0.18171  -0.38438
O          O       0.89511   0.96156   0.93070  -0.54881
O          O       0.72047   0.44576   0.86001  -0.41465
O          O       0.93046   0.02549   0.83216  -0.54045

