data_crystal

_audit_creation_method 'AiiDA-DDEC plugin'

_cell_length_a        11.27470
_cell_length_b        15.11890
_cell_length_c        17.03901

_cell_angle_alpha     89.95196
_cell_angle_beta     90.01525
_cell_angle_gamma     103.52896

_symmetry_space_group_name_Hall 'P 1'
_symmetry_space_group_name_H-M  'P 1'

loop_
_symmetry_equiv_pos_as_xyz
 'x,y,z'

loop_
_atom_site_label
_atom_site_type_symbol
_atom_site_fract_x
_atom_site_fract_y
_atom_site_fract_z
_atom_site_charge
Ni         Ni      0.01512   0.86911   0.03756   0.79709
Ni         Ni      0.98461   0.63093   0.53775   0.79702
Ni         Ni      0.98487   0.13089   0.96244   0.79689
Ni         Ni      0.01538   0.36907   0.46225   0.79719
H          H       0.99096   0.34299   0.02488   0.36944
H          H       0.84057   0.92610   0.14914   0.09624
H          H       0.79779   0.78687   0.93826   0.11238
H          H       0.62692   0.93903   0.14951   0.12250
H          H       0.58014   0.79095   0.92981   0.12386
H          H       0.45103   0.94163   0.14845   0.12317
H          H       0.40768   0.80538   0.92311   0.12333
H          H       0.23192   0.94281   0.14137   0.11021
H          H       0.19027   0.81250   0.92697   0.11252
H          H       0.00306   0.55924   0.06452   0.11956
H          H       0.00729   0.70702   0.28163   0.13377
H          H       0.04741   0.42957   0.28279   0.12946
H          H       0.01006   0.15741   0.52462   0.37166
H          H       0.15919   0.57360   0.64944   0.09711
H          H       0.20134   0.71291   0.43839   0.11277
H          H       0.37281   0.56082   0.64967   0.12341
H          H       0.41894   0.70889   0.42972   0.12448
H          H       0.54869   0.55829   0.64861   0.12377
H          H       0.59209   0.69467   0.42311   0.12356
H          H       0.76760   0.55679   0.64151   0.10995
H          H       0.80935   0.68717   0.42694   0.11253
H          H       0.99616   0.94049   0.56460   0.11966
H          H       0.99131   0.79315   0.78222   0.13348
H          H       0.95324   0.07119   0.78237   0.13032
H          H       0.00903   0.65701   0.97512   0.37151
H          H       0.15943   0.07390   0.85086   0.09628
H          H       0.20220   0.21313   0.06174   0.11253
H          H       0.37307   0.06097   0.85049   0.12236
H          H       0.41986   0.20905   0.07019   0.12375
H          H       0.54896   0.05837   0.85155   0.12330
H          H       0.59231   0.19462   0.07689   0.12337
H          H       0.76808   0.05719   0.85863   0.11012
H          H       0.80972   0.18750   0.07303   0.11237
H          H       0.99693   0.44076   0.93548   0.11958
H          H       0.99270   0.29297   0.71838   0.13375
H          H       0.95258   0.57043   0.71721   0.12946
H          H       0.98993   0.84260   0.47539   0.37151
H          H       0.84080   0.42640   0.35056   0.09695
H          H       0.79865   0.28709   0.56161   0.11265
H          H       0.62718   0.43918   0.35033   0.12358
H          H       0.58105   0.29111   0.57028   0.12451
H          H       0.45130   0.44171   0.35139   0.12364
H          H       0.40790   0.30533   0.57689   0.12356
H          H       0.23240   0.44321   0.35849   0.10993
H          H       0.19064   0.31283   0.57307   0.11272
H          H       0.00383   0.05951   0.43540   0.11974
H          H       0.00868   0.20685   0.21778   0.13348
H          H       0.04675   0.92881   0.21763   0.13035
C          C       0.78004   0.89869   0.10087   0.10565
C          C       0.75573   0.82047   0.98339   0.10860
C          C       0.65897   0.90484   0.10063  -0.17255
C          C       0.63348   0.82342   0.97944  -0.17041
C          C       0.58168   0.86745   0.03840   0.09408
C          C       0.45169   0.87258   0.03615   0.09353
C          C       0.39863   0.91214   0.09746  -0.17876
C          C       0.37460   0.83686   0.97327  -0.17941
C          C       0.27563   0.91310   0.09465   0.10627
C          C       0.25231   0.84005   0.97457   0.09596
C          C       0.02346   0.56382   0.38040   0.57122
C          C       0.00575   0.64260   0.16807  -0.04070
C          C       0.00941   0.56239   0.12803  -0.10153
C          C       0.01075   0.64476   0.25048  -0.08949
C          C       0.02557   0.48620   0.16946  -0.04732
C          C       0.02345   0.56731   0.29212  -0.05050
C          C       0.03504   0.48931   0.25120  -0.11292
C          C       0.03653   0.40231   0.12677   0.57718
C          C       0.00000   0.72611   0.12306   0.55303
C          C       0.21962   0.60121   0.60115   0.10471
C          C       0.24361   0.67944   0.48357   0.10889
C          C       0.34070   0.59508   0.60080  -0.17412
C          C       0.36587   0.67650   0.47951  -0.17231
C          C       0.41791   0.63252   0.53850   0.09551
C          C       0.54793   0.62736   0.53621   0.09361
C          C       0.60101   0.58772   0.59754  -0.17899
C          C       0.62506   0.66305   0.47329  -0.17948
C          C       0.72397   0.58660   0.59473   0.10506
C          C       0.74731   0.65970   0.47458   0.09530
C          C       0.97603   0.93640   0.88041   0.56879
C          C       0.99301   0.85725   0.66828  -0.04185
C          C       0.98968   0.93756   0.62811  -0.10055
C          C       0.98818   0.85531   0.75072  -0.08970
C          C       0.97430   0.01405   0.66936  -0.04631
C          C       0.97601   0.93299   0.79217  -0.04909
C          C       0.96510   0.01114   0.75110  -0.11414
C          C       0.96450   0.09838   0.62673   0.57404
C          C      -0.00119   0.77376   0.62315   0.55193
C          C       0.21996   0.10131   0.89913   0.10561
C          C       0.24426   0.17953   0.01661   0.10840
C          C       0.34102   0.09516   0.89937  -0.17263
C          C       0.36652   0.17658   0.02056  -0.17026
C          C       0.41831   0.13255   0.96160   0.09408
C          C       0.54830   0.12742   0.96385   0.09337
C          C       0.60136   0.08786   0.90254  -0.17876
C          C       0.62540   0.16314   0.02674  -0.17927
C          C       0.72436   0.08690   0.90535   0.10627
C          C       0.74768   0.15995   0.02543   0.09610
C          C       0.97654   0.43618   0.61960   0.57127
C          C       0.99425   0.35740   0.83193  -0.04053
C          C       0.99058   0.43761   0.87197  -0.10176
C          C       0.98924   0.35524   0.74952  -0.08962
C          C       0.97442   0.51380   0.83054  -0.04721
C          C       0.97654   0.43269   0.70788  -0.05060
C          C       0.96495   0.51069   0.74880  -0.11281
C          C       0.96346   0.59769   0.87323   0.57704
C          C      -0.00001   0.27389   0.87694   0.55290
C          C       0.78038   0.39879   0.39886   0.10507
C          C       0.75638   0.32056   0.51643   0.10894
C          C       0.65929   0.40492   0.39920  -0.17437
C          C       0.63412   0.32350   0.52049  -0.17213
C          C       0.58208   0.36748   0.46150   0.09552
C          C       0.45206   0.37264   0.46379   0.09344
C          C       0.39898   0.41228   0.40246  -0.17901
C          C       0.37493   0.33695   0.52671  -0.17939
C          C       0.27602   0.41340   0.40527   0.10528
C          C       0.25268   0.34030   0.52542   0.09507
C          C       0.02396   0.06360   0.11959   0.56881
C          C       0.00698   0.14275   0.33172  -0.04182
C          C       0.01031   0.06244   0.37189  -0.10056
C          C       0.01181   0.14469   0.24928  -0.08964
C          C       0.02569   0.98595   0.33064  -0.04627
C          C       0.02398   0.06701   0.20783  -0.04893
C          C       0.03489   0.98886   0.24890  -0.11453
C          C       0.03549   0.90162   0.37328   0.57407
C          C       0.00118   0.22624   0.37686   0.55208
N          N       0.82918   0.85890   0.04264  -0.21420
N          N       0.20289   0.87724   0.03442  -0.20898
N          N       0.17031   0.64106   0.54293  -0.21380
N          N       0.79674   0.62242   0.53447  -0.20792
N          N       0.17082   0.14110   0.95737  -0.21387
N          N       0.79710   0.12276   0.96558  -0.20919
N          N       0.82968   0.35894   0.45707  -0.21426
N          N       0.20325   0.37757   0.46553  -0.20772
O          O       0.00589   0.80073   0.15830  -0.52230
O          O       0.99224   0.72326   0.04709  -0.55922
O          O       0.98212   0.62428   0.41692  -0.54354
O          O       0.06509   0.50163   0.41269  -0.60130
O          O       0.09764   0.35025   0.15009  -0.48857
O          O       0.97123   0.39197   0.05958  -0.49874
O          O       0.99343   0.69901   0.65819  -0.52108
O          O       0.00662   0.77682   0.54716  -0.55813
O          O       0.01726   0.87577   0.91687  -0.54314
O          O       0.93471  -0.00130   0.91266  -0.59944
O          O       0.90503   0.15145   0.65035  -0.48747
O          O       0.02902   0.10803   0.55933  -0.49936
O          O       0.99410   0.19927   0.84170  -0.52233
O          O       0.00775   0.27674   0.95291  -0.55816
O          O       0.01787   0.37572   0.58308  -0.54378
O          O       0.93490   0.49837   0.58731  -0.60108
O          O       0.90235   0.64975   0.84991  -0.48810
O          O       0.02876   0.60803   0.94042  -0.50035
O          O       0.00655   0.30099   0.34181  -0.52117
O          O       0.99337   0.22318   0.45284  -0.55819
O          O       0.98273   0.12423   0.08313  -0.54290
O          O       0.06528   0.00130   0.08734  -0.59973
O          O       0.09497   0.84855   0.34965  -0.48775
O          O       0.97097   0.89197   0.44067  -0.49899

