data_crystal

_audit_creation_method 'AiiDA-DDEC plugin'

_cell_length_a        14.10716
_cell_length_b        15.12611
_cell_length_c        15.12613

_cell_angle_alpha     103.05001
_cell_angle_beta     110.87228
_cell_angle_gamma     110.87230

_symmetry_space_group_name_Hall 'P 1'
_symmetry_space_group_name_H-M  'P 1'

loop_
_symmetry_equiv_pos_as_xyz
 'x,y,z'

loop_
_atom_site_label
_atom_site_type_symbol
_atom_site_fract_x
_atom_site_fract_y
_atom_site_fract_z
_atom_site_charge
Cd         Cd      0.00848   0.40170   0.71750   1.07917
Cd         Cd      0.49152   0.28250   0.59829   1.07904
Cd         Cd      0.99152   0.59829   0.28250   1.07909
Cd         Cd      0.50848   0.71750   0.40171   1.07919
Cd         Cd     -0.00000   0.50000   0.50000   1.14406
Cd         Cd      0.50000   0.50000   0.50000   1.14398
H          H       0.12119   0.88454   0.02662   0.30608
H          H       0.05967   0.73742   0.85764   0.12673
H          H       0.87336   0.89250   0.73315   0.13476
H          H       0.77172   0.57951   0.55109   0.12679
H          H       0.28758   0.24394   0.19177   0.12537
H          H       0.26045   0.48399   0.09496   0.14616
H          H       0.07408   0.16870   0.86897   0.14067
H          H       0.37880   0.97337   0.11545   0.30611
H          H       0.44033   0.14236   0.26257   0.12682
H          H       0.62664   0.26685   0.10749   0.13490
H          H       0.72828   0.44890   0.42049   0.12659
H          H       0.21242   0.80822   0.75606   0.12543
H          H       0.23955   0.90503   0.51600   0.14625
H          H       0.42592   0.13102   0.83130   0.14046
H          H       0.87880   0.11545   0.97337   0.30591
H          H       0.94033   0.26257   0.14236   0.12676
H          H       0.12664   0.10749   0.26685   0.13487
H          H       0.22827   0.42049   0.44890   0.12659
H          H       0.71242   0.75606   0.80823   0.12527
H          H       0.73955   0.51600   0.90504   0.14627
H          H       0.92592   0.83130   0.13102   0.14054
H          H       0.62119   0.02662   0.88454   0.30606
H          H       0.55967   0.85764   0.73743   0.12671
H          H       0.37336   0.73314   0.89251   0.13487
H          H       0.27172   0.55109   0.57951   0.12677
H          H       0.78758   0.19177   0.24394   0.12528
H          H       0.76045   0.09496   0.48399   0.14617
H          H       0.57408   0.86897   0.16870   0.14060
H          H       0.75000   0.37270   0.62729   0.03988
H          H       0.25000   0.62729   0.37271   0.04013
C          C       0.93950   0.55966   0.68538   0.56291
C          C       0.91874   0.65111   0.70284  -0.00932
C          C       0.99009   0.73827   0.79660  -0.11687
C          C       0.97397   0.82591   0.80739   0.00546
C          C       0.88469   0.82424   0.72476  -0.08805
C          C       0.81118   0.73532   0.63341  -0.01004
C          C       0.82862   0.64901   0.62215  -0.06209
C          C       0.71385   0.73207   0.54714   0.56599
C          C       0.04881   0.92295   0.89818   0.28696
C          C       0.13947   0.08356   0.99699   0.26922
C          C       0.17594   0.19331   0.02704   0.02260
C          C       0.25215   0.26714   0.13013  -0.09653
C          C       0.28276   0.37155   0.15369  -0.03275
C          C       0.23681   0.40271   0.07558  -0.05363
C          C       0.16091   0.32900   0.97275   0.00073
C          C       0.13124   0.22521   0.94858  -0.12530
C          C       0.36545   0.45160   0.26338   0.59398
C          C       0.10722   0.36098   0.88999   0.53318
C          C       0.56050   0.31461   0.44034   0.56317
C          C       0.58126   0.29715   0.34888  -0.00939
C          C       0.50990   0.20339   0.26172  -0.11704
C          C       0.52603   0.19261   0.17409   0.00555
C          C       0.61531   0.27523   0.17575  -0.08799
C          C       0.68882   0.36659   0.26468  -0.00993
C          C       0.67137   0.37785   0.35098  -0.06214
C          C       0.78615   0.45286   0.26793   0.56595
C          C       0.45118   0.10181   0.07704   0.28684
C          C       0.36053   0.00300   0.91643   0.26926
C          C       0.32405   0.97296   0.80669   0.02239
C          C       0.24785   0.86986   0.73286  -0.09637
C          C       0.21723   0.84630   0.62845  -0.03272
C          C       0.26319   0.92441   0.59729  -0.05361
C          C       0.33908   0.02725   0.67100   0.00083
C          C       0.36876   0.05141   0.77479  -0.12541
C          C       0.13455   0.73661   0.54840   0.59380
C          C       0.39277   0.11000   0.63901   0.53322
C          C       0.06049   0.44034   0.31462   0.56313
C          C       0.08126   0.34888   0.29715  -0.00941
C          C       0.00990   0.26172   0.20340  -0.11692
C          C       0.02603   0.17408   0.19261   0.00553
C          C       0.11530   0.17575   0.27523  -0.08791
C          C       0.18882   0.26467   0.36659  -0.01000
C          C       0.17137   0.35098   0.37785  -0.06207
C          C       0.28615   0.26792   0.45286   0.56601
C          C       0.95118   0.07704   0.10181   0.28678
C          C       0.86053   0.91643   0.00301   0.26946
C          C       0.82405   0.80669   0.97296   0.02252
C          C       0.74785   0.73285   0.86987  -0.09668
C          C       0.71723   0.62845   0.84630  -0.03251
C          C       0.76319   0.59729   0.92441  -0.05348
C          C       0.83909   0.67100   0.02725   0.00079
C          C       0.86876   0.77479   0.05142  -0.12530
C          C       0.63455   0.54839   0.73662   0.59372
C          C       0.89278   0.63901   0.11000   0.53294
C          C       0.43950   0.68538   0.55966   0.56314
C          C       0.41874   0.70284   0.65112  -0.00936
C          C       0.49009   0.79660   0.73828  -0.11717
C          C       0.47397   0.80738   0.82591   0.00553
C          C       0.38469   0.72476   0.82424  -0.08797
C          C       0.31118   0.63340   0.73532  -0.00999
C          C       0.32862   0.62214   0.64902  -0.06197
C          C       0.21384   0.54713   0.73207   0.56572
C          C       0.54882   0.89818   0.92295   0.28697
C          C       0.63947   0.99699   0.08356   0.26935
C          C       0.67595   0.02704   0.19331   0.02246
C          C       0.75215   0.13013   0.26714  -0.09643
C          C       0.78276   0.15369   0.37155  -0.03277
C          C       0.73681   0.07558   0.40271  -0.05364
C          C       0.66091   0.97275   0.32900   0.00102
C          C       0.63124   0.94858   0.22521  -0.12537
C          C       0.86545   0.26338   0.45160   0.59391
C          C       0.60722   0.88999   0.36099   0.53310
C          C       0.75000   0.32612   0.67387   0.46295
C          C       0.25000   0.67387   0.32612   0.46289
N          N       0.06214   0.01441   0.89748  -0.39466
N          N       0.11716   0.93843  -0.00221  -0.14378
N          N       0.17533   0.03931   0.06211  -0.21891
N          N       0.43785   0.10252   0.98559  -0.39476
N          N       0.38283   0.00221   0.06157  -0.14404
N          N       0.32467   0.93788   0.96068  -0.21833
N          N       0.93785   0.98559   0.10252  -0.39452
N          N       0.88283   0.06157   0.00221  -0.14395
N          N       0.82467   0.96068   0.93789  -0.21878
N          N       0.56215   0.89748   0.01441  -0.39449
N          N       0.61716  -0.00222   0.93843  -0.14391
N          N       0.67533   0.06211   0.03931  -0.21903
O          O       0.00063   0.55222   0.76584  -0.48890
O          O       0.89444   0.49516   0.59299  -0.59140
O          O       0.62398   0.64355   0.48238  -0.59325
O          O       0.72254   0.81557   0.54039  -0.44342
O          O       0.39523   0.41463   0.33052  -0.55730
O          O       0.39597   0.54480   0.27701  -0.53052
O          O       0.08855   0.43597   0.91488  -0.40311
O          O       0.07955   0.30973   0.79645  -0.46787
O          O       0.83886   0.31702   0.71927  -0.42235
O          O       0.49936   0.23415   0.44778  -0.48877
O          O       0.60556   0.40701   0.50484  -0.59183
O          O       0.87602   0.51761   0.35645  -0.59348
O          O       0.77746   0.45960   0.18443  -0.44322
O          O       0.10477   0.66947   0.58537  -0.55728
O          O       0.10403   0.72299   0.45520  -0.53033
O          O       0.41145   0.08511   0.56403  -0.40292
O          O       0.42044   0.20355   0.69026  -0.46815
O          O       0.66114   0.28072   0.68297  -0.42245
O          O      -0.00063   0.44778   0.23416  -0.48886
O          O       0.10555   0.50484   0.40701  -0.59177
O          O       0.37601   0.35645   0.51761  -0.59352
O          O       0.27745   0.18443   0.45960  -0.44313
O          O       0.60477   0.58537   0.66948  -0.55743
O          O       0.60403   0.45520   0.72299  -0.53013
O          O       0.91145   0.56403   0.08511  -0.40272
O          O       0.92045   0.69026   0.20355  -0.46804
O          O       0.16114   0.68297   0.28072  -0.42248
O          O       0.50063   0.76584   0.55222  -0.48919
O          O       0.39444   0.59299   0.49516  -0.59153
O          O       0.12398   0.48238   0.64355  -0.59317
O          O       0.22254   0.54039   0.81557  -0.44319
O          O       0.89523   0.33052   0.41463  -0.55733
O          O       0.89597   0.27701   0.54480  -0.53041
O          O       0.58855   0.91488   0.43597  -0.40307
O          O       0.57955   0.79644   0.30974  -0.46787
O          O       0.33886   0.71927   0.31703  -0.42259

