data_crystal

_audit_creation_method 'AiiDA-DDEC plugin'

_cell_length_a        10.61894
_cell_length_b        15.94707
_cell_length_c        19.17180

_cell_angle_alpha     97.67425
_cell_angle_beta     89.99636
_cell_angle_gamma     90.02008

_symmetry_space_group_name_Hall 'P 1'
_symmetry_space_group_name_H-M  'P 1'

loop_
_symmetry_equiv_pos_as_xyz
 'x,y,z'

loop_
_atom_site_label
_atom_site_type_symbol
_atom_site_fract_x
_atom_site_fract_y
_atom_site_fract_z
_atom_site_charge
Cd         Cd      0.56634   0.95333   0.57536   1.05851
Cd         Cd      0.43367   0.04667   0.42465   1.05852
Cd         Cd      0.56631   0.04726   0.92456   1.05801
Cd         Cd      0.47892  -0.00012   0.75000   1.14177
Cd         Cd      0.52108   0.00012   0.25001   1.14183
Cd         Cd      0.43369   0.95274   0.07545   1.05796
H          H       0.35138   0.34880   0.76783   0.13633
H          H       0.15175   0.81968   0.72540   0.12249
H          H       0.88131   0.67030   0.98113   0.11959
H          H       0.81848   0.33225   0.06235   0.13298
H          H       0.11870   0.32970   0.01887   0.11963
H          H       0.70458   0.19809   0.02534   0.11901
H          H       0.29552   0.19826   0.52534   0.11915
H          H       0.18152   0.66774   0.93766   0.13314
H          H       0.64862   0.65119   0.23217   0.13626
H          H       0.77962   0.78583   0.88484   0.13535
H          H       0.15156   0.18041   0.77419   0.12290
H          H       0.99167   0.29654   0.80441   0.12059
H          H       0.70449   0.80173   0.47466   0.11921
H          H       0.77670   0.51571   0.58643   0.16100
H          H       0.99122   0.34086   0.69354   0.14269
H          H       0.68728   0.31867   0.86555   0.12348
H          H       0.22331   0.48429   0.41357   0.16122
H          H       0.18135   0.33224   0.56244   0.13286
H          H       0.11869   0.67009   0.48093   0.11954
H          H       0.72448   0.57879   0.71967   0.12869
H          H       0.22353   0.51663   0.08725   0.16153
H          H       0.22038   0.21416   0.11516   0.13531
H          H       0.53801   0.21167   0.23164   0.10705
H          H       0.72465   0.78843   0.01102   0.11629
H          H       0.27553   0.42120   0.28033   0.12861
H          H       0.00851   0.34139   0.19398   0.14305
H          H       0.74074   0.88898   0.79873   0.12533
H          H       0.17447   0.55740   0.62594   0.15471
H          H       0.72480   0.21164   0.48944   0.11587
H          H       0.53778   0.78820   0.26839   0.10715
H          H       0.72474   0.42101   0.77839   0.12871
H          H       0.27535   0.21156   0.98899   0.11644
H          H       0.22081   0.78765   0.38559   0.13632
H          H       0.77919   0.21235   0.61442   0.13628
H          H       0.81865   0.66776   0.43757   0.13316
H          H       0.84826   0.18031   0.27460   0.12245
H          H       0.00804   0.29667   0.30453   0.12065
H          H       0.25958   0.88937   0.29829   0.12436
H          H       0.31296   0.31783   0.36639   0.12289
H          H       0.46199   0.78833   0.76836   0.10692
H          H       0.82553   0.44260   0.37406   0.15470
H          H       0.68705   0.68217   0.63362   0.12279
H          H       0.00833   0.70345   0.19559   0.12080
H          H       0.29542   0.80191   0.97466   0.11898
H          H       0.25926   0.11102   0.20127   0.12545
H          H       0.00878   0.65913   0.30647   0.14243
H          H       0.17471   0.44275   0.87448   0.15476
H          H       0.88132   0.32991   0.51907   0.11956
H          H       0.35145   0.65116   0.73226   0.13618
H          H       0.77648   0.48336   0.91275   0.16155
H          H       0.31272   0.68132   0.13445   0.12338
H          H       0.82530   0.55725   0.12553   0.15458
H          H       0.99149   0.65861   0.80603   0.14273
H          H       0.74043   0.11062   0.70171   0.12445
H          H       0.27526   0.57899   0.22161   0.12884
H          H       0.99197   0.70333   0.69548   0.12083
H          H       0.84844   0.81959   0.22581   0.12297
H          H       0.64856   0.34883   0.26774   0.13614
H          H       0.46222   0.21180   0.73162   0.10736
H          H       0.27521   0.78836   0.51057   0.11575
C          C       0.04871   0.68096   0.58695   0.25918
C          C       0.12734   0.42417   0.14112   0.29449
C          C       0.87443   0.29579   0.46625  -0.20217
C          C       0.71037   0.79151   0.71140  -0.05276
C          C       0.04858   0.31883   0.91287   0.25919
C          C       0.02592   0.45521   0.39679   0.30189
C          C       0.67631   0.85239   0.66221   0.56925
C          C       0.31988   0.12199   0.86358   0.59326
C          C       0.54758   0.88549   0.39347   0.60372
C          C       0.12558   0.70421   0.53376  -0.20236
C          C       0.86545   0.49652   0.60754  -0.34599
C          C       0.75736   0.69450   0.40077  -0.21980
C          C       0.77805   0.18904   0.38048  -0.05504
C          C       0.72786   0.64663   0.73642  -0.20161
C          C       0.21193   0.23029   0.94929  -0.07594
C          C       0.24271   0.69453   0.90084  -0.21961
C          C       0.38530   0.19499   0.62659  -0.08302
C          C       0.29244   0.70365   0.18943  -0.06972
C          C       0.54750   0.11434   0.10653   0.60494
C          C       0.25993   0.34772   0.66754   0.27276
C          C       0.98570   0.39761   0.66811  -0.36896
C          C       0.87267   0.57583   0.85888   0.29441
C          C       0.71025   0.20877   0.78817  -0.05158
C          C       0.33987   0.31469   0.71526  -0.20881
C          C       0.70749   0.70398   0.68868  -0.07031
C          C       0.32393   0.85159   0.16229   0.56790
C          C       0.66011   0.31465   0.21519  -0.20873
C          C       0.22196   0.81096   0.61953  -0.05512
C          C       0.74007   0.65227   0.33246   0.27286
C          C       0.12558   0.29565   0.96603  -0.20178
C          C       0.05514   0.72247   0.65587  -0.20696
C          C       0.45243   0.11450   0.60654   0.60380
C          C       0.95143   0.68117   0.08713   0.25918
C          C       0.75188   0.32172   0.69197   0.26288
C          C       0.73996   0.34774   0.16746   0.27268
C          C       0.27215   0.35336   0.26359  -0.20182
C          C       0.32369   0.14761   0.33779   0.56903
C          C       0.24098   0.76504   0.33067  -0.20039
C          C       0.97408   0.54478   0.60321   0.30223
C          C       0.24812   0.67828   0.30803   0.26306
C          C       0.95129   0.31904   0.41305   0.25919
C          C       0.31997   0.87794   0.63625   0.59315
C          C       0.86523   0.50290   0.89185  -0.34657
C          C       0.85721   0.21283   0.32793  -0.07015
C          C       0.73793   0.17856   0.71778  -0.05450
C          C       0.01430   0.60239   0.33190  -0.36896
C          C       0.90709   0.44706   0.16151   0.30537
C          C       0.26194   0.17884   0.21806  -0.05468
C          C       0.59871   0.76145   0.30515  -0.05382
C          C       0.98586   0.60199   0.83162  -0.36968
C          C       0.26207   0.82143   0.28223  -0.05453
C          C       0.61475   0.19483   0.12656  -0.08364
C          C       0.28975   0.79123   0.21183  -0.05181
C          C       0.75194   0.67747   0.80696   0.26132
C          C       0.70757   0.29635   0.81057  -0.06979
C          C       0.05499   0.27739   0.84393  -0.20673
C          C       0.26005   0.65226   0.83254   0.27270
C          C       0.22193   0.18904   0.88012  -0.05635
C          C       0.24807   0.32253   0.19304   0.26143
C          C       0.72801   0.35304   0.76240  -0.20389
C          C       0.87270   0.42370   0.64062   0.29407
C          C       0.90728   0.55315   0.33852   0.30595
C          C       0.08962   0.47938   0.87029  -0.35043
C          C       0.68003   0.12205   0.36375   0.59300
C          C       0.68012   0.87800   0.13642   0.59351
C          C       0.97400   0.45492   0.89655   0.30167
C          C       0.61470   0.80501   0.37341  -0.08287
C          C       0.21192   0.76967   0.55035  -0.07600
C          C       0.75903   0.23495   0.66933  -0.20028
C          C       0.59880   0.23843   0.19482  -0.05359
C          C       0.28964   0.20849   0.28860  -0.05268
C          C       0.87443   0.70435   0.03398  -0.20172
C          C       0.66014   0.68530   0.28474  -0.20886
C          C       0.91050   0.47950   0.37021  -0.35137
C          C       0.67607   0.14840   0.83771   0.56750
C          C       0.85731   0.78720   0.17244  -0.07038
C          C       0.14270   0.21279   0.82757  -0.07033
C          C       0.40129   0.23855   0.69486  -0.05366
C          C       0.78807   0.76971   0.05071  -0.07621
C          C       0.33989   0.68534   0.78481  -0.20881
C          C       0.13477   0.49709   0.10815  -0.34674
C          C       0.08951   0.52050   0.62979  -0.35150
C          C       0.69363   0.77022   0.42109  -0.05725
C          C       0.77808   0.81096   0.11989  -0.05636
C          C       0.01415   0.39801   0.16839  -0.36968
C          C       0.29252   0.29602   0.31133  -0.07015
C          C       0.30634   0.77035   0.92112  -0.05687
C          C       0.14280   0.78717   0.67208  -0.07016
C          C       0.13455   0.50348   0.39247  -0.34568
C          C       0.27200   0.64695   0.23760  -0.20389
C          C       0.78809   0.23033   0.44965  -0.07610
C          C       0.24088   0.23585   0.17016  -0.19956
C          C       0.75729   0.30546   0.09917  -0.21958
C          C       0.75912   0.76415   0.82984  -0.19927
C          C       0.12731   0.57629   0.35938   0.29382
C          C       0.38526   0.80517   0.87344  -0.08360
C          C       0.69367   0.22964   0.07888  -0.05701
C          C       0.40120   0.76156   0.80518  -0.05368
C          C       0.24265   0.30550   0.59923  -0.21988
C          C       0.91039   0.52062   0.12971  -0.35052
C          C       0.73806   0.82116   0.78194  -0.05475
C          C       0.02600   0.54508   0.10345   0.30185
C          C       0.45250   0.88565   0.89348   0.60485
C          C       0.30637   0.22978   0.57891  -0.05718
C          C       0.94487   0.27752   0.34414  -0.20704
C          C       0.09292   0.55293   0.83849   0.30533
C          C       0.94502   0.72261   0.15607  -0.20653
C          C       0.09272   0.44685   0.66148   0.30595
O          O       0.34289   0.90287   0.70124  -0.57903
O          O       0.20645   0.57463   0.80910  -0.20905
O          O       0.54412   0.07778   0.04259  -0.59137
O          O       0.76176   0.37820   0.64243  -0.22438
O          O       0.45589   0.92221   0.95741  -0.59119
O          O       0.62662   0.09633   0.41645  -0.58536
O          O       0.65052   0.07069   0.81271  -0.60863
O          O       0.03825   0.61602   0.06942  -0.22028
O          O       0.65050   0.92979   0.68765  -0.60911
O          O       0.62690   0.90363   0.08364  -0.58477
O          O       0.34292   0.09685   0.79865  -0.57988
O          O       0.66874   0.17340   0.90336  -0.53531
O          O       0.76188   0.62148   0.85697  -0.22348
O          O       0.34948   0.92930   0.18730  -0.60886
O          O       0.96175   0.38398   0.93059  -0.22015
O          O       0.48703   0.07931   0.15314  -0.60394
O          O       0.96179   0.61582   0.56934  -0.22067
O          O       0.51284   0.07938   0.65311  -0.60327
O          O       0.79355   0.42536   0.19090  -0.20922
O          O       0.37311   0.09637   0.91636  -0.58435
O          O       0.54424   0.92189   0.45742  -0.59134
O          O       0.79376   0.57471   0.30904  -0.20939
O          O       0.34951   0.07021   0.31236  -0.60893
O          O       0.33076   0.17160   0.40363  -0.53556
O          O       0.66924   0.82840   0.59637  -0.53561
O          O       0.20624   0.42529   0.69096  -0.20922
O          O       0.48716   0.92061   0.34689  -0.60358
O          O       0.65711   0.09713   0.29876  -0.57915
O          O       0.33126   0.82659   0.09664  -0.53555
O          O       0.45577   0.07811   0.54258  -0.59158
O          O       0.65708   0.90315   0.20136  -0.57983
O          O       0.37338   0.90367   0.58355  -0.58572
O          O       0.23825   0.62180   0.35757  -0.22404
O          O       0.51298   0.92068   0.84687  -0.60403
O          O       0.03822   0.38417   0.43066  -0.22025
O          O       0.23812   0.37851   0.14303  -0.22359

