data_crystal

_audit_creation_method 'AiiDA-DDEC plugin'

_cell_length_a         9.38129
_cell_length_b        17.72815
_cell_length_c        17.72818

_cell_angle_alpha     76.42517
_cell_angle_beta     76.08500
_cell_angle_gamma     76.08498

_symmetry_space_group_name_Hall 'P 1'
_symmetry_space_group_name_H-M  'P 1'

loop_
_symmetry_equiv_pos_as_xyz
 'x,y,z'

loop_
_atom_site_label
_atom_site_type_symbol
_atom_site_fract_x
_atom_site_fract_y
_atom_site_fract_z
_atom_site_charge
Mn         Mn      0.07286   0.32585   0.19545   1.09010
Mn         Mn     -0.00017   0.49997   0.00007   1.19599
Mn         Mn      0.57286   0.19545   0.32585   1.09006
Mn         Mn      0.49987   0.00005   0.49997   1.19599
Mn         Mn      0.42713   0.80456   0.67414   1.09016
Mn         Mn      0.92713   0.67414   0.80456   1.09023
H          H       0.06614   0.66693   0.11679   0.15008
H          H       0.96252   0.03278   0.21865   0.12627
H          H       0.80920   0.77118   0.30074   0.11500
H          H       0.34173   0.11507   0.63755   0.10722
H          H       0.58372   0.32079   0.47761   0.13152
H          H       0.15825   0.36246   0.88493   0.10741
H          H       0.80323   0.64935   0.42860   0.12061
H          H       0.30920   0.30073   0.77119   0.11491
H          H       0.19079   0.22881   0.69927   0.11469
H          H       0.92850   0.28385   0.65729   0.14997
H          H       0.30323   0.42860   0.64935   0.12070
H          H       0.03746   0.96722   0.78135   0.12674
H          H       0.32768   0.27343   0.46568   0.10469
H          H       0.12436   0.91584   0.16293   0.13415
H          H       0.37563   0.83707   0.08417   0.13437
H          H       0.91627   0.52239   0.67922   0.13136
H          H       0.62435   0.16293   0.91584   0.13420
H          H       0.67231   0.72656   0.53432   0.10481
H          H       0.69455   0.53404   0.57862   0.12739
H          H       0.41627   0.67922   0.52239   0.13157
H          H       0.87563   0.08416   0.83707   0.13447
H          H       0.93385   0.33306   0.88321   0.15017
H          H       0.07148   0.71615   0.34271   0.14976
H          H       0.56614   0.11679   0.66693   0.15025
H          H       0.43680   0.36057   0.34304   0.10009
H          H       0.84174   0.63755   0.11507   0.10724
H          H       0.19455   0.57862   0.53404   0.12743
H          H       0.53745   0.78135   0.96723   0.12654
H          H       0.57148   0.34271   0.71615   0.14976
H          H       0.82768   0.46568   0.27344   0.10464
H          H       0.42850   0.65729   0.28385   0.14989
H          H       0.56319   0.63943   0.65697   0.09972
H          H       0.69079   0.69927   0.22882   0.11482
H          H       0.43385   0.88321   0.33307   0.15004
H          H       0.69676   0.57140   0.35065   0.12033
H          H       0.30544   0.46596   0.42138   0.12766
H          H       0.80544   0.42138   0.46596   0.12761
H          H       0.17231   0.53431   0.72657   0.10483
H          H       0.08372   0.47761   0.32079   0.13157
H          H       0.06319   0.65696   0.63943   0.09986
H          H       0.65824   0.88493   0.36246   0.10768
H          H       0.46252   0.21865   0.03278   0.12644
H          H       0.93680   0.34303   0.36057   0.10010
H          H       0.19676   0.35065   0.57140   0.12043
C          C       0.36005   0.47445   0.65180  -0.20731
C          C       0.58047   0.53486   0.61132  -0.19881
C          C       0.78714   0.69502   0.53367  -0.06694
C          C       0.22006   0.25533   0.34347   0.62551
C          C       0.42496   0.65993   0.40585   0.26419
C          C       0.99251   0.38926   0.52500   0.26426
C          C       0.49378   0.40648   0.34498  -0.06386
C          C       0.29909   0.96364   0.67721   0.60952
C          C       0.52095   0.20566   0.91053  -0.20371
C          C       0.92867   0.32585   0.69303  -0.31999
C          C       0.42080   0.83579   0.49306   0.61234
C          C       0.14078   0.30233   0.40629  -0.08740
C          C       0.27993   0.65653   0.74467   0.62562
C          C       0.57503   0.34007   0.59415   0.26429
C          C       0.97904   0.08947   0.79434  -0.20368
C          C       0.71285   0.46633   0.30498  -0.06726
C          C       0.85921   0.69766   0.59371  -0.08749
C          C       0.42238   0.78686   0.43423  -0.00466
C          C       0.56590   0.22663   0.69923   0.27084
C          C       0.00748   0.61074   0.47501   0.26423
C          C       0.08047   0.61131   0.53486  -0.19875
C          C       0.07132   0.67415   0.30697  -0.31994
C          C       0.13994   0.34820   0.52555  -0.20744
C          C       0.50748   0.47500   0.61074   0.26427
C          C       0.07760   0.56577   0.21314  -0.00463
C          C       0.52391   0.77152   0.16272   0.26590
C          C       0.15507   0.17230   0.71555  -0.21964
C          C       0.43409   0.77336   0.30077   0.27083
C          C       0.35921   0.59371   0.69766  -0.08746
C          C       0.57760   0.21314   0.56577  -0.00462
C          C       0.06938   0.64607   0.17914  -0.22457
C          C       0.06590   0.69923   0.22664   0.27082
C          C       0.70089   0.03637   0.32278   0.60967
C          C       0.49251   0.52499   0.38926   0.26425
C          C       0.84491   0.82770   0.28446  -0.21950
C          C       0.47903   0.79434   0.08947  -0.20377
C          C       0.80048   0.96606   0.29424  -0.08048
C          C       0.93409   0.30077   0.77337   0.27081
C          C       0.99378   0.34498   0.40648  -0.06396
C          C       0.50621   0.59352   0.65502  -0.06384
C          C       0.02095   0.91053   0.20566  -0.20385
C          C       0.02391   0.16271   0.77152   0.26564
C          C       0.64078   0.40629   0.30234  -0.08734
C          C       0.41952   0.46514   0.38869  -0.19871
C          C       0.79908   0.67721   0.96364   0.60943
C          C       0.57921   0.29403   0.53960  -0.22895
C          C       0.43060   0.82086   0.35393  -0.22469
C          C       0.24027   0.10834   0.68154  -0.07098
C          C       0.42078   0.70597   0.46040  -0.22877
C          C       0.92079   0.49306   0.83580   0.61257
C          C       0.72006   0.34347   0.25533   0.62557
C          C       0.69949   0.70576   0.03395  -0.08027
C          C       0.74027   0.68154   0.10834  -0.07091
C          C       0.92238   0.43423   0.78686  -0.00478
C          C       0.86005   0.65180   0.47446  -0.20733
C          C       0.97607   0.83728   0.22848   0.26586
C          C       0.07917   0.50693   0.16422   0.61216
C          C       0.77993   0.74467   0.65653   0.62569
C          C       0.91952   0.38868   0.46514  -0.19869
C          C       0.65507   0.71554   0.17231  -0.21973
C          C       0.57917   0.16421   0.50694   0.61237
C          C       0.19949   0.03395   0.70575  -0.08033
C          C       0.00621   0.65502   0.59352  -0.06392
C          C       0.42867   0.69303   0.32585  -0.31987
C          C       0.07503   0.59415   0.34007   0.26409
C          C       0.75970   0.89166   0.31846  -0.07108
C          C       0.34492   0.28446   0.82770  -0.21960
C          C       0.92496   0.40585   0.65993   0.26444
C          C       0.06833   0.02509   0.76272  -0.06060
C          C       0.21285   0.30497   0.46634  -0.06711
C          C       0.47607   0.22848   0.83729   0.26580
C          C       0.93165   0.97491   0.23728  -0.06042
C          C       0.92078   0.46039   0.70597  -0.22881
C          C       0.25971   0.31846   0.89166  -0.07083
C          C       0.07921   0.53960   0.29403  -0.22869
C          C       0.57132   0.30697   0.67415  -0.32005
C          C       0.20089   0.32278   0.03637   0.60972
C          C       0.63994   0.52554   0.34820  -0.20731
C          C       0.28714   0.53366   0.69503  -0.06691
C          C       0.56832   0.76273   0.02509  -0.06051
C          C       0.93061   0.35393   0.82086  -0.22461
C          C       0.43166   0.23727   0.97491  -0.06037
C          C       0.30048   0.29424   0.96606  -0.08073
C          C       0.56938   0.17914   0.64607  -0.22453
O          O       0.60730   0.19709   0.43434  -0.57872
O          O       0.89991   0.61392   0.97074  -0.63176
O          O       0.60004   0.02926   0.38605  -0.63186
O          O       0.08442   0.56456   0.41906  -0.20816
O          O       0.55024   0.09497   0.53390  -0.59119
O          O       0.14894   0.65094   0.78504  -0.60160
O          O       0.21539   0.28042   0.10433  -0.54442
O          O       0.44974   0.90503   0.46610  -0.59153
O          O       0.56484   0.18973   0.77762  -0.20528
O          O       0.15611   0.25496   0.28779  -0.56879
O          O       0.58442   0.41906   0.56456  -0.20832
O          O       0.89267   0.56565   0.80291  -0.57866
O          O       0.85104   0.34906   0.21496  -0.60182
O          O       0.93514   0.22238   0.81027  -0.20510
O          O       0.71539   0.10433   0.28042  -0.54452
O          O       0.43514   0.81027   0.22238  -0.20536
O          O       0.65611   0.28779   0.25496  -0.56876
O          O       0.28461   0.89568   0.71958  -0.54421
O          O       0.91557   0.43543   0.58094  -0.20826
O          O       0.78461   0.71958   0.89568  -0.54459
O          O       0.06484   0.77762   0.18973  -0.20550
O          O       0.34388   0.71221   0.74503  -0.56904
O          O       0.10731   0.43434   0.19709  -0.57851
O          O       0.64894   0.78503   0.65094  -0.60172
O          O       0.10004   0.38605   0.02926  -0.63192
O          O       0.35105   0.21496   0.34907  -0.60165
O          O       0.94973   0.46610   0.90504  -0.59136
O          O       0.41557   0.58094   0.43544  -0.20803
O          O       0.39992   0.97073   0.61393  -0.63201
O          O       0.05022   0.53390   0.09498  -0.59127
O          O       0.39266   0.80291   0.56566  -0.57831
O          O       0.84388   0.74503   0.71221  -0.56909

