data_crystal

_audit_creation_method 'AiiDA-DDEC plugin'

_cell_length_a        11.70938
_cell_length_b        11.99572
_cell_length_c        21.40544

_cell_angle_alpha     89.99890
_cell_angle_beta     90.00446
_cell_angle_gamma     115.32159

_symmetry_space_group_name_Hall 'P 1'
_symmetry_space_group_name_H-M  'P 1'

loop_
_symmetry_equiv_pos_as_xyz
 'x,y,z'

loop_
_atom_site_label
_atom_site_type_symbol
_atom_site_fract_x
_atom_site_fract_y
_atom_site_fract_z
_atom_site_charge
Ag         Ag      0.46772   0.41606   0.81386   0.26410
Ag         Ag      0.64922   0.31916   0.94693   0.26115
Ag         Ag      0.55070   0.09100   0.81336   0.26892
Ag         Ag      0.36268   0.18638   0.94721   0.25832
Ag         Ag      0.03224   0.58389   0.31376   0.26430
Ag         Ag      0.85082   0.68084   0.44692   0.26102
Ag         Ag      0.94928   0.90899   0.31330   0.26940
Ag         Ag      0.13739   0.81374   0.44712   0.25895
Ag         Ag      0.53229   0.58395   0.18614   0.26407
Ag         Ag      0.35079   0.68085   0.05307   0.26105
Ag         Ag      0.44931   0.90901   0.18664   0.26897
Ag         Ag      0.63733   0.81363   0.05279   0.25843
Ag         Ag      0.96777   0.41612   0.68624   0.26436
Ag         Ag      0.14919   0.31918   0.55308   0.26118
Ag         Ag      0.05073   0.09102   0.68670   0.26928
Ag         Ag      0.86262   0.18627   0.55288   0.25886
H          H       0.69943   0.46515   0.70493   0.09521
H          H       0.85322   0.25423   0.87781   0.10339
H          H       0.96005   0.31708   0.81503   0.09197
H          H       0.06464   0.41127   0.91661   0.12602
H          H       0.94367   0.45926   0.93288   0.11141
H          H       0.04907   0.52649   0.86968   0.11550
H          H       0.63163   0.88141   0.89885   0.09341
H          H       0.64045   0.19580   0.07227   0.08644
H          H       0.63419   0.05679   0.10384   0.09041
H          H       0.83798   0.23229   0.13397   0.12367
H          H       0.87423   0.27280   0.05406   0.11576
H          H       0.86851   0.13141   0.08319   0.12125
H          H       0.31915   0.03988   0.70495   0.09495
H          H       0.16499   0.25265   0.87690   0.10470
H          H       0.05980   0.19137   0.81337   0.09149
H          H       0.95211   0.09711   0.91420   0.12630
H          H       0.96701   0.98155   0.86728   0.11492
H          H       0.07105   0.04669   0.93121   0.11255
H          H       0.39325   0.62950   0.89999   0.09407
H          H       0.33141   0.43044   0.10301   0.09419
H          H       0.33858   0.29671   0.07195   0.08639
H          H       0.12213   0.24942   0.11707   0.12376
H          H       0.10604   0.35457   0.06356   0.11854
H          H       0.11307   0.21789   0.03559   0.11669
H          H       0.80030   0.53484   0.20491   0.09515
H          H       0.64671   0.74576   0.37784   0.10414
H          H       0.53984   0.68291   0.31508   0.09176
H          H       0.43529   0.58876   0.41666   0.12697
H          H       0.55626   0.54077   0.43294   0.11280
H          H       0.45081   0.47350   0.36975   0.11600
H          H       0.86843   0.11869   0.39886   0.09371
H          H       0.85959   0.80417   0.57226   0.08656
H          H       0.86584   0.94318   0.60382   0.09022
H          H       0.66212   0.76768   0.63397   0.12376
H          H       0.62577   0.72714   0.55408   0.11551
H          H       0.63150   0.86853   0.58320   0.12156
H          H       0.18094   0.96034   0.20486   0.09547
H          H       0.33509   0.74747   0.37682   0.10536
H          H       0.44033   0.80876   0.31332   0.09147
H          H       0.54791   0.90293   0.41418   0.12576
H          H       0.53310   0.01856   0.36729   0.11497
H          H       0.42900   0.95336   0.43118   0.11171
H          H       0.10656   0.37047   0.40000   0.09341
H          H       0.16874   0.56960   0.60296   0.09379
H          H       0.16155   0.70334   0.57193   0.08643
H          H       0.37797   0.75061   0.61705   0.12468
H          H       0.39410   0.64550   0.56354   0.11875
H          H       0.38708   0.78218   0.53557   0.11719
H          H       0.30058   0.53486   0.29507   0.09521
H          H       0.14679   0.74579   0.12219   0.10364
H          H       0.03997   0.68293   0.18497   0.09186
H          H       0.93537   0.58874   0.08339   0.12602
H          H       0.05635   0.54075   0.06712   0.11151
H          H       0.95094   0.47352   0.13032   0.11520
H          H       0.36838   0.11860   0.10115   0.09358
H          H       0.35957   0.80421   0.92773   0.08642
H          H       0.36582   0.94322   0.89616   0.09073
H          H       0.16203   0.76772   0.86603   0.12356
H          H       0.12578   0.72721   0.94594   0.11547
H          H       0.13150   0.86860   0.91681   0.12123
H          H       0.68087   0.96014   0.29505   0.09491
H          H       0.83502   0.74736   0.12310   0.10437
H          H       0.94021   0.80864   0.18663   0.09147
H          H       0.04790   0.90290   0.08580   0.12636
H          H       0.03301   0.01846   0.13272   0.11514
H          H       0.92897   0.95333   0.06879   0.11258
H          H       0.60676   0.37052   0.10001   0.09384
H          H       0.66860   0.56958   0.89699   0.09402
H          H       0.66143   0.70330   0.92805   0.08638
H          H       0.87788   0.75059   0.88293   0.12397
H          H       0.89397   0.64544   0.93644   0.11858
H          H       0.88695   0.78212   0.96441   0.11698
H          H       0.19971   0.46517   0.79509   0.09513
H          H       0.35330   0.25425   0.62216   0.10392
H          H       0.46017   0.31710   0.68492   0.09187
H          H       0.56472   0.41125   0.58333   0.12712
H          H       0.44376   0.45925   0.56706   0.11276
H          H       0.54920   0.52651   0.63025   0.11624
H          H       0.13158   0.88132   0.60114   0.09353
H          H       0.14042   0.19584   0.42774   0.08661
H          H       0.13418   0.05683   0.39618   0.09012
H          H       0.33789   0.23233   0.36603   0.12394
H          H       0.37424   0.27287   0.44592   0.11578
H          H       0.36851   0.13148   0.41680   0.12150
H          H       0.81908   0.03967   0.79514   0.09547
H          H       0.66492   0.25254   0.62318   0.10570
H          H       0.55968   0.19125   0.68668   0.09137
H          H       0.45210   0.09708   0.58582   0.12579
H          H       0.46691   0.98145   0.63271   0.11467
H          H       0.57101   0.04665   0.56882   0.11186
H          H       0.89346   0.62954   0.60000   0.09353
H          H       0.83127   0.43041   0.39704   0.09397
H          H       0.83846   0.29667   0.42807   0.08639
H          H       0.62204   0.24940   0.38295   0.12455
H          H       0.60591   0.35452   0.43646   0.11879
H          H       0.61294   0.21783   0.46442   0.11692
C          C       0.81406   0.37418   0.81841   0.30897
C          C       0.72256   0.43447   0.74874   0.10733
C          C       0.90625   0.33912   0.85120  -0.19553
C          C       0.99629   0.43999   0.89507  -0.35556
C          C       0.66115   0.07670   0.00589   0.31729
C          C       0.63984   0.95904   0.92744   0.10249
C          C       0.68351   0.13051   0.06988  -0.19379
C          C       0.82455   0.19575   0.08617  -0.35438
C          C       0.20453   0.13266   0.81769   0.30679
C          C       0.29605   0.07125   0.74853   0.10749
C          C       0.11215   0.16828   0.84989  -0.19658
C          C       0.02012   0.06744   0.89310  -0.35882
C          C       0.33547   0.42239   0.00413   0.31258
C          C       0.37727   0.54870   0.92777   0.10062
C          C       0.29483   0.36084   0.06586  -0.19550
C          C       0.15045   0.29144   0.07075  -0.35274
C          C       0.68579   0.62576   0.31843   0.30834
C          C       0.77726   0.56552   0.24874   0.10770
C          C       0.59363   0.66086   0.35125  -0.19527
C          C       0.50361   0.56002   0.39513  -0.35938
C          C       0.83890   0.92328   0.50586   0.31572
C          C       0.86025   0.04104   0.42743   0.10243
C          C       0.81652   0.86947   0.56985  -0.19292
C          C       0.67549   0.80421   0.58616  -0.35474
C          C       0.29557   0.86745   0.31758   0.30775
C          C       0.20402   0.92887   0.24843   0.10766
C          C       0.38794   0.83184   0.34982  -0.19798
C          C       0.47994   0.93264   0.39307  -0.35647
C          C       0.16463   0.57768   0.50410   0.31406
C          C       0.12261   0.45127   0.42777   0.10219
C          C       0.20532   0.63922   0.56583  -0.19545
C          C       0.34968   0.70862   0.57073  -0.35416
C          C       0.18595   0.62583   0.18159   0.30880
C          C       0.27745   0.56555   0.25126   0.10696
C          C       0.09376   0.66089   0.14880  -0.19533
C          C       0.00372   0.56002   0.10493  -0.35570
C          C       0.33886   0.92331   0.99411   0.31726
C          C       0.36017   0.04097   0.07256   0.10253
C          C       0.31650   0.86950   0.93012  -0.19391
C          C       0.17546   0.80426   0.91383  -0.35424
C          C       0.79549   0.86736   0.18231   0.30698
C          C       0.70396   0.92876   0.25147   0.10743
C          C       0.88786   0.83173   0.15011  -0.19651
C          C       0.97989   0.93257   0.10690  -0.35873
C          C       0.66454   0.57763   0.99587   0.31271
C          C       0.62275   0.45131   0.07223   0.10029
C          C       0.70519   0.63917   0.93414  -0.19529
C          C       0.84956   0.70857   0.92925  -0.35302
C          C       0.31422   0.37425   0.68157   0.30827
C          C       0.22275   0.43449   0.75126   0.10761
C          C       0.40638   0.33915   0.64875  -0.19540
C          C       0.49640   0.43999   0.60487  -0.35933
C          C       0.16111   0.07673   0.49414   0.31580
C          C       0.13976   0.95897   0.57257   0.10226
C          C       0.18349   0.13054   0.43015  -0.19304
C          C       0.32452   0.19580   0.41383  -0.35476
C          C       0.70444   0.13256   0.68242   0.30770
C          C       0.79599   0.07114   0.75157   0.10738
C          C       0.61207   0.16817   0.65018  -0.19795
C          C       0.52007   0.06737   0.60693  -0.35670
C          C       0.83538   0.42233   0.49589   0.31393
C          C       0.87741   0.54874   0.57223   0.10226
C          C       0.79469   0.36079   0.43417  -0.19523
C          C       0.65033   0.29140   0.42927  -0.35430
N          N       0.70883   0.37114   0.84473  -0.24609
N          N       0.64968   0.41031   0.79967  -0.18266
N          N       0.82632   0.41392   0.75810  -0.34773
N          N       0.64754   0.13544   0.95519  -0.23135
N          N       0.63386   0.05980   0.90449  -0.18832
N          N       0.65674   0.96484   0.99030  -0.34268
N          N       0.31025   0.13711   0.84409  -0.24469
N          N       0.36937   0.09716   0.79939  -0.18028
N          N       0.19197   0.09130   0.75771  -0.34826
N          N       0.36167   0.36896   0.95465  -0.22682
N          N       0.38848   0.45011   0.90528  -0.18336
N          N       0.34440   0.53615   0.98909  -0.34365
N          N       0.79100   0.62873   0.34476  -0.24529
N          N       0.85015   0.58959   0.29967  -0.18353
N          N       0.67353   0.58610   0.25810  -0.34798
N          N       0.85250   0.86459   0.45514  -0.23062
N          N       0.86621   0.94029   0.40444  -0.18837
N          N       0.84336   0.03520   0.49029  -0.34279
N          N       0.18982   0.86295   0.34396  -0.24604
N          N       0.13068   0.90291   0.29928  -0.18038
N          N       0.30811   0.90883   0.25759  -0.34878
N          N       0.13844   0.63112   0.45461  -0.22723
N          N       0.11146   0.54990   0.40529  -0.18487
N          N       0.15557   0.46386   0.48908  -0.34472
N          N       0.29118   0.62887   0.15527  -0.24585
N          N       0.35033   0.58970   0.20033  -0.18232
N          N       0.17369   0.58609   0.24190  -0.34792
N          N       0.35247   0.86457   0.04481  -0.23153
N          N       0.36615   0.94021   0.09551  -0.18851
N          N       0.34327   0.03517   0.00970  -0.34242
N          N       0.68976   0.86290   0.15591  -0.24500
N          N       0.63064   0.90285   0.20061  -0.18024
N          N       0.80804   0.90872   0.24229  -0.34805
N          N       0.63834   0.63105   0.04535  -0.22667
N          N       0.61153   0.54990   0.09472  -0.18338
N          N       0.65561   0.46386   0.01091  -0.34351
N          N       0.20901   0.37128   0.65524  -0.24558
N          N       0.14986   0.41042   0.70033  -0.18352
N          N       0.32649   0.41392   0.74190  -0.34748
N          N       0.14751   0.13542   0.54486  -0.23022
N          N       0.13380   0.05972   0.59555  -0.18841
N          N       0.15665   0.96481   0.50971  -0.34300
N          N       0.81019   0.13706   0.65604  -0.24583
N          N       0.86933   0.09710   0.70072  -0.18009
N          N       0.69190   0.09118   0.74241  -0.34906
N          N       0.86157   0.36889   0.54539  -0.22758
N          N       0.88855   0.45011   0.59471  -0.18485
N          N       0.84444   0.53615   0.51092  -0.34438

