data_crystal

_audit_creation_method 'AiiDA-DDEC plugin'

_cell_length_a        13.37333
_cell_length_b        14.47922
_cell_length_c        14.30758

_cell_angle_alpha     110.13248
_cell_angle_beta     107.84430
_cell_angle_gamma     108.83587

_symmetry_space_group_name_Hall 'P 1'
_symmetry_space_group_name_H-M  'P 1'

loop_
_symmetry_equiv_pos_as_xyz
 'x,y,z'

loop_
_atom_site_label
_atom_site_type_symbol
_atom_site_fract_x
_atom_site_fract_y
_atom_site_fract_z
_atom_site_charge
Ga         Ga      0.26706   0.45385   0.58262   1.26930
Ga         Ga      0.52500   0.38404   0.55099   1.46450
Ga         Ga      0.68640   0.41724   0.87127   1.26968
Ga         Ga      0.97937   0.45372   0.82856   1.46579
Ga         Ga      0.82027   0.13742   0.56797   1.33605
Ga         Ga      0.14558   0.17220   0.62165   1.46626
Ga         Ga      0.74204   0.56835   0.43046   1.32706
Ga         Ga      0.31331   0.56953   0.13861   1.32886
Ga         Ga      0.17359   0.85802   0.42724   1.33326
Fe         Fe      0.46912   0.60946   0.46047   1.39362
Fe         Fe      0.01421   0.54127   0.14718   1.38870
Fe         Fe      0.86522   0.84230   0.38818   1.37946
P          P       0.54594   0.61151   0.66739   1.43979
P          P       0.60138   0.66751   0.31936   1.55282
P          P       0.88227   0.33675   0.94225   1.43854
P          P       0.28127   0.67819   0.34850   1.54664
P          P       0.93685   0.06310   0.39942   1.46152
P          P       0.92955   0.64622   0.32283   1.54258
P          P       0.45862   0.39234   0.34086   1.45626
P          P       0.40158   0.34342   0.69425   1.53318
P          P       0.12480   0.66189   0.05053   1.45880
P          P       0.71099   0.31575   0.65039   1.54574
P          P       0.06882   0.94553   0.60561   1.45975
P          P       0.05910   0.34997   0.65897   1.53566
H          H       0.40834   0.65814   0.76298   0.31858
H          H       0.26498   0.60731   0.74791   0.29835
H          H       0.14220   0.24461   0.42966   0.29987
H          H       0.26526   0.30227   0.41802   0.29973
H          H       0.36625   0.73426   0.64783   0.08365
H          H       0.15949   0.64219   0.48636   0.14111
H          H       0.09577   0.58635   0.55792   0.12353
H          H       0.00165   0.36435   0.38321   0.12077
H          H       0.05296   0.43743   0.31454   0.12834
H          H       0.05467   0.24649   0.26391   0.10346
H          H       0.19207   0.36375   0.30709   0.10001
H          H       0.65057   0.23751   0.89748   0.31966
H          H       0.52125   0.24913   0.86217   0.30170
H          H       0.71072   0.57005   0.81230   0.29857
H          H       0.84568   0.58274   0.87761   0.29983
H          H       0.72297   0.35178   0.08784   0.08456
H          H       0.67056   0.50654   0.15495   0.13865
H          H       0.53729   0.43361   0.02705   0.12205
H          H       0.61727   0.60981   0.97805   0.11984
H          H       0.73544   0.67920   0.11929   0.12592
H          H       0.79025   0.73370   0.97890   0.10262
H          H       0.88440   0.69054   0.05189   0.10146
H          H       0.74207   0.05966   0.30076   0.33019
H          H       0.64874   0.10592   0.34540   0.30271
H          H       0.88398   0.17157   0.76844   0.30415
H          H       0.96799   0.12628   0.72075   0.30826
H          H       0.63913   0.88626   0.30186   0.10699
H          H       0.49266   0.88215   0.38099   0.13696
H          H       0.53197   0.02572   0.41643   0.09206
H          H       0.63360   0.00049   0.62978   0.07867
H          H       0.61774   0.86916   0.54005   0.11380
H          H       0.80179   0.98534   0.73545   0.10073
H          H       0.83261   0.94363   0.61892   0.10656
H          H       0.55296   0.29680   0.24027   0.33521
H          H       0.69225   0.34978   0.23729   0.30219
H          H       0.87198   0.77106   0.58981   0.30763
H          H       0.74388   0.71248   0.59479   0.31253
H          H       0.65702   0.29852   0.41227   0.10788
H          H       0.88098   0.38314   0.49746   0.13187
H          H       0.88124   0.42282   0.39066   0.08498
H          H       0.99654   0.63519   0.61728   0.07308
H          H       0.93253   0.54997   0.67045   0.10184
H          H       0.94253   0.74355   0.74466   0.10126
H          H       0.79863   0.62589   0.68482   0.10014
H          H       0.32496   0.76489   0.06263   0.33571
H          H       0.46473   0.76109   0.11321   0.30403
H          H       0.28157   0.40966   0.18224   0.30690
H          H       0.14869   0.40436   0.12006   0.31170
H          H       0.25042   0.59775   0.89154   0.10008
H          H       0.38042   0.50519   0.88045   0.13471
H          H       0.49031   0.60665   0.02548   0.08528
H          H       0.37810   0.38586   0.01545   0.07260
H          H       0.26066   0.33279   0.87854   0.10244
H          H       0.19704   0.25688   0.00105   0.09987
H          H       0.11312   0.31638   0.94389   0.10028
H          H       0.26227   0.94492   0.70466   0.33428
H          H       0.35192   0.89402   0.65632   0.30336
H          H       0.10431   0.82103   0.22470   0.30841
H          H       0.02506   0.87064   0.27681   0.30795
H          H       0.35910   0.11194   0.69574   0.10089
H          H       0.50051   0.11414   0.61134   0.13687
H          H       0.46166   0.97096   0.57624   0.09261
H          H       0.36013   0.99655   0.36449   0.07294
H          H       0.37336   0.12655   0.45330   0.10503
H          H       0.18994   0.00734   0.25661   0.09931
H          H       0.15952   0.05139   0.37314   0.10188
C          C       0.28967   0.67690   0.64746   0.06045
C          C       0.17335   0.60391   0.54032  -0.13536
C          C       0.08044   0.40843   0.37479  -0.11051
C          C       0.12895   0.32761   0.33449   0.00248
C          C       0.64514   0.34946   0.03110   0.05481
C          C       0.63306   0.45398   0.06341  -0.13262
C          C       0.70472   0.62027   0.03097  -0.10947
C          C       0.79413   0.66329   0.98957  -0.00031
C          C       0.61916   0.95513   0.32953   0.20294
C          C       0.56425   0.96374   0.40601  -0.10635
C          C       0.67216   0.96050   0.58123  -0.06503
C          C       0.79955   0.99500   0.66225  -0.01117
C          C       0.70589   0.32973   0.37175   0.22153
C          C       0.83644   0.40981   0.44170  -0.10701
C          C       0.91259   0.58739   0.61692  -0.05991
C          C       0.86852   0.66807   0.66690  -0.00677
C          C       0.33984   0.63372   0.95974   0.22426
C          C       0.39417   0.55950   0.96421  -0.10882
C          C       0.29412   0.38525   0.96922  -0.05713
C          C       0.20077   0.33419   0.00267  -0.00856
C          C       0.37923   0.04320   0.66775   0.21128
C          C       0.42934   0.03286   0.58745  -0.10565
C          C       0.32013   0.03503   0.41232  -0.06084
C          C       0.19237  -0.00084   0.33057  -0.01006
N          N       0.31726   0.62236   0.70989  -0.56912
N          N       0.17103   0.49891   0.48397  -0.08229
N          N       0.19614   0.31329   0.42829  -0.55698
N          N       0.61140   0.28851   0.91468  -0.56713
N          N       0.68815   0.51254   0.01447  -0.08677
N          N       0.76739   0.57157   0.88152  -0.55337
N          N       0.66625   0.04134   0.31524  -0.47352
N          N       0.67521  -0.00220   0.49888  -0.38554
N          N       0.88239   0.11417   0.70026  -0.54783
N          N       0.64541   0.31560   0.27205  -0.45300
N          N       0.82090   0.50224   0.50220  -0.39736
N          N       0.81216   0.69984   0.58365  -0.55454
N          N       0.38380   0.73167   0.04718  -0.44920
N          N       0.31683   0.49901  -0.00231  -0.40009
N          N       0.22803   0.41596   0.11755  -0.55242
N          N       0.33597   0.95976   0.68634  -0.46710
N          N       0.31754  -0.00149   0.49521  -0.40504
N          N       0.10961   0.88063   0.29449  -0.55025
O          O       0.41273   0.52919   0.56705  -0.86111
O          O       0.59679   0.68451   0.61611  -0.76227
O          O       0.60772   0.53331   0.66730  -0.77441
O          O       0.55944   0.67585   0.78176  -0.74428
O          O       0.57748   0.69523   0.42296  -0.78834
O          O       0.69804   0.77883   0.33934  -0.78006
O          O       0.49063   0.61967   0.20821  -0.80269
O          O       0.65174   0.58311   0.30979  -0.78614
O          O       0.84852   0.43478   0.95826  -0.85746
O          O       0.98138   0.38612   0.06647  -0.76293
O          O       0.94729   0.33900   0.86520  -0.78479
O          O       0.78216   0.22139   0.89284  -0.74498
O          O       0.15349   0.57434   0.27269  -0.79561
O          O       0.35227   0.65762   0.44219  -0.78001
O          O       0.27950   0.78770   0.40710  -0.80350
O          O       0.34605   0.68839   0.27567  -0.78676
O          O       0.89349   0.05919   0.48843  -0.87902
O          O       0.90868   0.93820   0.32743  -0.76536
O          O       0.07989   0.13753   0.47024  -0.76878
O          O       0.88396   0.10585   0.32569  -0.74679
O          O       0.87940   0.72218   0.29342  -0.79356
O          O       0.91062   0.55593   0.21030  -0.77705
O          O       0.86450   0.58489   0.37155  -0.80490
O          O       0.06581   0.72039   0.40803  -0.78571
O          O       0.59067   0.48206   0.43214  -0.87618
O          O       0.41507   0.32450   0.40061  -0.76437
O          O       0.38601   0.45923   0.33171  -0.78313
O          O       0.43913   0.31494   0.22684  -0.74452
O          O       0.41434   0.30068   0.58459  -0.79451
O          O       0.31239   0.23647   0.68874  -0.78028
O          O       0.51861   0.40198   0.80291  -0.80933
O          O       0.34615   0.42297   0.69600  -0.80078
O          O       0.16214   0.57108   0.05580  -0.87967
O          O       0.02837   0.60396   0.92191  -0.76862
O          O       0.05569   0.67046   0.12287  -0.78110
O          O       0.22291   0.77548   0.08801  -0.74228
O          O       0.83472   0.42486   0.71874  -0.79710
O          O       0.63069   0.32616   0.55219  -0.78166
O          O       0.71702   0.20817   0.59619  -0.81459
O          O       0.65179   0.30806   0.72727  -0.79903
O          O       0.10133   0.93849   0.50815  -0.87977
O          O       0.09875   0.07245   0.67349  -0.77001
O          O       0.92699   0.87147   0.54189  -0.77691
O          O       0.12706   0.90917   0.68382  -0.74540
O          O       0.11332   0.28303   0.70251  -0.79872
O          O       0.08350   0.45338   0.76580  -0.78141
O          O       0.11309   0.39387   0.59359  -0.80767
O          O       0.92114   0.27559   0.58383  -0.80002

