data_crystal

_audit_creation_method 'AiiDA-DDEC plugin'

_cell_length_a        11.64252
_cell_length_b        15.02850
_cell_length_c        19.46922

_cell_angle_alpha     70.87799
_cell_angle_beta     76.21996
_cell_angle_gamma     83.63480

_symmetry_space_group_name_Hall 'P 1'
_symmetry_space_group_name_H-M  'P 1'

loop_
_symmetry_equiv_pos_as_xyz
 'x,y,z'

loop_
_atom_site_label
_atom_site_type_symbol
_atom_site_fract_x
_atom_site_fract_y
_atom_site_fract_z
_atom_site_charge
Co         Co      0.59859   0.28483   0.07633   0.92746
Co         Co      0.76677   0.50593   0.42291   0.87086
Co         Co      0.40141   0.71509   0.92377   0.92744
Co         Co      0.23317   0.49409   0.57711   0.87111
Co         Co      0.50007   0.49995  -0.00001   1.11986
Co         Co      0.50000   0.49987   0.50000   1.07741
H          H       0.77859   0.69963   0.29861   0.09829
H          H       0.92558   0.82422   0.22990   0.11473
H          H       0.15562   0.66678   0.37722   0.13911
H          H       0.00090   0.55148   0.43813   0.09800
H          H       0.09624   0.86767   0.15066   0.11058
H          H       0.25222   0.98415   0.08592   0.09995
H          H       0.38506   0.91260   0.28598   0.10702
H          H       0.22566   0.80043   0.35292   0.12305
H          H       0.62276   0.93230   0.02857   0.08489
H          H       0.48580   0.88496   0.08269   0.09365
H          H       0.70607   0.88240   0.14584   0.12339
H          H       0.65225   0.78370   0.13248   0.13692
H          H       0.56677   0.83515   0.19890   0.13004
H          H       0.67930   0.09214   0.03558   0.11900
H          H       0.34010   0.29272   0.08425   0.11974
H          H       0.18638   0.38254   0.14648   0.11162
H          H       0.15174   0.15034   0.35073   0.11135
H          H       0.30957   0.06170   0.28887   0.10445
H          H       0.99290   0.40823   0.19743   0.12272
H          H       0.84561   0.49577   0.26977   0.09480
H          H       0.95930   0.35469   0.46428   0.10280
H          H       0.11886   0.26766   0.39922   0.12457
H          H       0.68513   0.28073   0.82012   0.10345
H          H       0.62271   0.32871   0.69760   0.11227
H          H       0.30030   0.45280   0.79318   0.11171
H          H       0.36742   0.41336   0.91304   0.11726
H          H       0.96746   0.32850   0.03715   0.12034
H          H       0.82822   0.61327   0.98540   0.11268
H          H       0.72920   0.50875   0.78884   0.11844
H          H       0.80968   0.48900   0.66322   0.10260
H          H       0.51766   0.65813   0.58340   0.11551
H          H       0.44437   0.68596   0.70667   0.12208
H          H       0.58358   0.19794   0.52859   0.15406
H          H       0.47778   0.28709   0.54871   0.16416
H          H       0.56285   0.21901   0.61506   0.14567
H          H       0.22139   0.30037   0.70141   0.09857
H          H       0.07441   0.17577   0.77012   0.11491
H          H       0.84438   0.33320   0.62279   0.13884
H          H      -0.00091   0.44850   0.56188   0.09771
H          H       0.90376   0.13231   0.84936   0.11077
H          H       0.74777   0.01583   0.91408   0.10008
H          H       0.61495   0.08737   0.71403   0.10684
H          H       0.77434   0.19955   0.64708   0.12290
H          H       0.37722   0.06770   0.97143   0.08479
H          H       0.51418   0.11505   0.91733   0.09365
H          H       0.29395   0.11761   0.85416   0.12323
H          H       0.34774   0.21630   0.86752   0.13675
H          H       0.43324   0.16486   0.80110   0.13006
H          H       0.32069   0.90788   0.96446   0.11897
H          H       0.65987   0.70724   0.91577   0.11978
H          H       0.81359   0.61744   0.85355   0.11186
H          H       0.84822   0.84962   0.64931   0.11124
H          H       0.69039   0.93826   0.71116   0.10424
H          H       0.00711   0.59176   0.80260   0.12273
H          H       0.15442   0.50424   0.73026   0.09517
H          H       0.04070   0.64529   0.53574   0.10280
H          H       0.88111   0.73231   0.60081   0.12445
H          H       0.31480   0.71927   0.17993   0.10327
H          H       0.37732   0.67131   0.30240   0.11206
H          H       0.69968   0.54723   0.20677   0.11187
H          H       0.63245   0.58664   0.08694   0.11748
H          H       0.03231   0.67151   0.96284   0.12018
H          H       0.17155   0.38673   0.01461   0.11329
H          H       0.27048   0.49130   0.21127   0.11811
H          H       0.19025   0.51097   0.33690   0.10225
H          H       0.48228   0.34185   0.41663   0.11606
H          H       0.55551   0.31407   0.29330   0.12241
H          H       0.41643   0.80198   0.47141   0.15388
H          H       0.52223   0.71285   0.45128   0.16448
H          H       0.43718   0.78094   0.38494   0.14559
C          C       0.86341   0.69597   0.31378   0.08828
C          C       0.94679   0.76440   0.27526  -0.19471
C          C       0.05605   0.75653   0.29603   0.10049
C          C       0.07434   0.67834   0.35667  -0.16870
C          C       0.98673   0.61298   0.39203   0.08846
C          C       0.14858   0.82616   0.25653   0.06537
C          C       0.15777   0.87874   0.18103  -0.12053
C          C       0.24690   0.94316   0.14410  -0.13117
C          C       0.32971   0.95637   0.18148   0.05436
C          C       0.32092   0.90317   0.25663  -0.12436
C          C       0.23138   0.83956   0.29408  -0.11677
C          C       0.42317   0.02536   0.14423  -0.00716
C          C       0.56514   0.91681   0.08428  -0.01765
C          C       0.62674   0.85087   0.14394  -0.39969
C          C       0.59387   0.08541   0.07350   0.07524
C          C       0.42940   0.11642   0.14558   0.08019
C          C       0.33665   0.17053   0.18219   0.05659
C          C       0.29875   0.26081   0.14258  -0.12311
C          C       0.21064   0.31146   0.17792  -0.11593
C          C       0.15749   0.27342   0.25369   0.05148
C          C       0.19371   0.18214   0.29258  -0.12253
C          C       0.28185   0.13156   0.25751  -0.12387
C          C       0.06804   0.32768   0.29265   0.10479
C          C       0.99032   0.39484   0.25623  -0.17830
C          C       0.90725   0.44343   0.29605   0.08496
C          C       0.97105   0.36514   0.40510   0.09341
C          C       0.05755   0.31501   0.36869  -0.17535
C          C       0.57098   0.32031   0.94369   0.56692
C          C       0.53024   0.34467   0.87325  -0.03254
C          C       0.60159   0.31895   0.81320  -0.09567
C          C       0.56647   0.34476   0.74565  -0.10007
C          C       0.45779   0.39332   0.73843  -0.02694
C          C       0.38450   0.41556   0.79956  -0.10534
C          C       0.42118   0.39292   0.86633  -0.09399
C          C       0.42144   0.42371   0.66541   0.57962
C          C       0.76344   0.43222   0.02506   0.58913
C          C       0.88537   0.46731   0.01249  -0.03102
C          C       0.98262   0.40341   0.02085  -0.10486
C          C       0.90391   0.56423   0.99163  -0.11079
C          C       0.53179   0.60941   0.83045   0.59014
C          C       0.58194   0.59857   0.75533  -0.02347
C          C       0.68516   0.54314   0.74303  -0.10014
C          C       0.72961   0.53170   0.67327  -0.09480
C          C       0.66890   0.57260   0.61556  -0.03675
C          C       0.56563   0.62842   0.62781  -0.09225
C          C       0.52391   0.64277   0.69660  -0.10129
C          C       0.70831   0.55285   0.54356   0.57344
C          C       0.66414   0.32201   0.52226   0.70347
C          C       0.56435   0.25327   0.55569  -0.53858
C          C       0.13657   0.30403   0.68624   0.08828
C          C       0.05319   0.23559   0.72475  -0.19444
C          C       0.94394   0.24345   0.70398   0.10026
C          C       0.92565   0.32165   0.64334  -0.16852
C          C       0.01326   0.38700   0.60799   0.08840
C          C       0.85140   0.17383   0.74348   0.06536
C          C       0.84222   0.12124   0.81898  -0.12045
C          C       0.75309   0.05681   0.85591  -0.13094
C          C       0.67028   0.04361   0.81854   0.05421
C          C       0.67908   0.09681   0.74338  -0.12434
C          C       0.76861   0.16042   0.70593  -0.11687
C          C       0.57681   0.97462   0.85579  -0.00697
C          C       0.43486   0.08319   0.91573  -0.01759
C          C       0.37327   0.14913   0.85606  -0.39975
C          C       0.40613   0.91457   0.92654   0.07491
C          C       0.57059   0.88355   0.85446   0.08038
C          C       0.66335   0.82945   0.81785   0.05661
C          C       0.70126   0.73917   0.85746  -0.12316
C          C       0.78936   0.68852   0.82212  -0.11563
C          C       0.84251   0.72656   0.74634   0.05131
C          C       0.80627   0.81782   0.70746  -0.12252
C          C       0.71813   0.86841   0.74253  -0.12408
C          C       0.93195   0.67229   0.70738   0.10516
C          C       0.00969   0.60515   0.74379  -0.17822
C          C       0.09276   0.55657   0.70397   0.08450
C          C       0.02894   0.63485   0.59492   0.09312
C          C       0.94243   0.68497   0.63134  -0.17568
C          C       0.42888   0.67962   0.05639   0.56768
C          C       0.46964   0.65529   0.12681  -0.03288
C          C       0.39835   0.68104   0.18685  -0.09594
C          C       0.43355   0.65525   0.25436  -0.09997
C          C       0.54223   0.60668   0.26157  -0.02740
C          C       0.61549   0.58447   0.20042  -0.10495
C          C       0.57874   0.60708   0.13367  -0.09368
C          C       0.57859   0.57628   0.33460   0.58004
C          C       0.23643   0.56769   0.97498   0.58926
C          C       0.11444   0.53269   0.98753  -0.03158
C          C       0.01717   0.59660   0.97915  -0.10396
C          C       0.09587   0.43578   0.00837  -0.11046
C          C       0.46827   0.39061   0.16961   0.58983
C          C       0.41797   0.40155   0.24471  -0.02424
C          C       0.31469   0.45694   0.25700  -0.09862
C          C       0.27029   0.46829   0.32680  -0.09537
C          C       0.33101   0.42738   0.38448  -0.03704
C          C       0.43426   0.37157   0.37225  -0.09226
C          C       0.47600   0.35729   0.30344  -0.10106
C          C       0.29164   0.44715   0.45646   0.57356
C          C       0.33589   0.67790   0.47773   0.70333
C          C       0.43566   0.74666   0.44430  -0.53872
N          N       0.52797   0.00743   0.09782   0.02241
N          N       0.53735   0.15265   0.10124  -0.35373
N          N       0.89554   0.42863   0.36980  -0.25259
N          N       0.88249   0.62026   0.37128  -0.25201
N          N       0.47201   0.99255   0.90220   0.02245
N          N       0.46266   0.84731   0.89882  -0.35378
N          N       0.10446   0.57137   0.63023  -0.25197
N          N       0.11749   0.37974   0.62874  -0.25214
O          O       0.51251   0.35752   0.99526  -0.61588
O          O       0.65612   0.26318   0.95726  -0.52502
O          O       0.31083   0.44225   0.66670  -0.56116
O          O       0.50268   0.42834   0.60798  -0.55250
O          O       0.56122   0.54800   0.88672  -0.58485
O          O       0.46216   0.68158   0.83252  -0.56022
O          O       0.64001   0.58026   0.49588  -0.60980
O          O       0.80560   0.50894   0.52755  -0.52417
O          O       0.68100   0.49331   0.00865  -0.58211
O          O       0.75392   0.34244   0.05139  -0.55200
O          O       0.63967   0.40438   0.47578  -0.64517
O          O       0.76379   0.29891   0.53666  -0.55740
O          O       0.48730   0.64235   0.00485  -0.61552
O          O       0.34382   0.73682   0.04277  -0.52611
O          O       0.68919   0.55772   0.33332  -0.56086
O          O       0.49732   0.57162   0.39202  -0.55287
O          O       0.43914   0.45202   0.11325  -0.58552
O          O       0.53794   0.31842   0.16765  -0.55942
O          O       0.35995   0.41969   0.50413  -0.60961
O          O       0.19439   0.49108   0.47249  -0.52450
O          O       0.31881   0.50657   0.99149  -0.58168
O          O       0.24605   0.65746   0.94855  -0.55299
O          O       0.36035   0.59553   0.52423  -0.64486
O          O       0.23628   0.70105   0.46330  -0.55773

