data_crystal

_audit_creation_method 'AiiDA-DDEC plugin'

_cell_length_a         9.91755
_cell_length_b        15.72208
_cell_length_c        21.04949

_cell_angle_alpha     99.67827
_cell_angle_beta     92.78606
_cell_angle_gamma     105.83623

_symmetry_space_group_name_Hall 'P 1'
_symmetry_space_group_name_H-M  'P 1'

loop_
_symmetry_equiv_pos_as_xyz
 'x,y,z'

loop_
_atom_site_label
_atom_site_type_symbol
_atom_site_fract_x
_atom_site_fract_y
_atom_site_fract_z
_atom_site_charge
Cu         Cu      0.36731   0.79769   0.54476   0.82827
Cu         Cu      0.94808   0.08979   0.36942   0.92869
Cu         Cu      0.94583   0.10015   0.80232   0.69295
Cu         Cu      0.63175   0.20406   0.45685   0.82458
Cu         Cu      0.05232   0.90939   0.63066   0.92865
Cu         Cu      0.05570   0.90090   0.19764   0.69371
H          H       0.28447   0.32692   0.32563   0.12747
H          H       0.51904   0.44257   0.35104   0.10278
H          H       0.55644   0.37339   0.53977   0.11219
H          H       0.32263   0.25960   0.51347   0.12573
H          H       0.75046   0.48631   0.55702   0.10646
H          H       0.72072   0.51625   0.41709   0.09381
H          H       0.19823   0.69609   0.63097   0.11769
H          H       0.95792   0.58678   0.62302   0.12704
H          H       0.91787   0.59838   0.41927   0.11422
H          H       0.15655   0.70779   0.43670   0.11314
H          H       0.30934   0.17301   0.93180   0.12052
H          H       0.49399   0.17102   0.01589   0.11048
H          H       0.22796   0.92196   0.05402   0.10582
H          H       0.04974   0.92076   0.96625   0.12326
H          H       0.58688   0.09611   0.08520   0.09754
H          H       0.36665   0.97727   0.15551   0.10837
H          H       0.93789   0.12677   0.23861   0.11923
H          H       0.75814   0.10137   0.14642   0.11877
H          H       0.45115   0.95732   0.25901   0.13579
H          H       0.64269   0.98722   0.34598   0.10327
H          H       0.89313   0.07043   0.57780   0.14064
H          H       0.18489   0.09935   0.73269   0.09429
H          H       0.38631   0.20274   0.69217   0.13921
H          H       0.39267   0.36655   0.70275   0.11185
H          H       0.19110   0.41577   0.74947   0.11938
H          H       0.99506   0.30146   0.78519   0.09581
H          H       0.71444   0.67371   0.67445   0.12759
H          H       0.47980   0.55795   0.64892   0.10282
H          H       0.44249   0.62696   0.46028   0.11244
H          H       0.67629   0.74058   0.48635   0.12591
H          H       0.24827   0.51372   0.44328   0.10801
H          H       0.28012   0.48325   0.58295   0.09339
H          H       0.80081   0.30406   0.37003   0.11870
H          H       0.04195   0.41270   0.37763   0.12525
H          H       0.08300   0.40131   0.58134   0.11414
H          H       0.84381   0.29239   0.56429   0.11311
H          H       0.69149   0.82792   0.06837   0.12084
H          H       0.50684   0.83028   0.98438   0.11044
H          H       0.77399   0.07843   0.94566   0.10483
H          H       0.95274   0.07918   0.03315   0.11950
H          H       0.41369   0.90618   0.91555   0.09828
H          H       0.63379   0.02338   0.84421   0.10885
H          H       0.06244   0.87238   0.76190   0.11951
H          H       0.24276   0.89877   0.85398   0.11896
H          H       0.54785   0.04396   0.74106   0.13650
H          H       0.35626   0.01244   0.65415   0.10229
H          H       0.10813   0.92957   0.42283   0.14173
H          H       0.81510   0.90131   0.26699   0.09351
H          H       0.61554   0.79802   0.30875   0.14007
H          H       0.60964   0.63433   0.29795   0.11144
H          H       0.81044   0.58519   0.25027   0.11994
H          H       0.00537   0.69959   0.21391   0.09639
C          C       0.15400   0.21638   0.40137   0.53429
C          C       0.28935   0.28781   0.41840  -0.01922
C          C       0.34433   0.33967   0.37262  -0.07364
C          C       0.47497   0.40358   0.38712  -0.12623
C          C       0.55382   0.41794   0.44755   0.10786
C          C       0.49709   0.36514   0.49320  -0.15460
C          C       0.36643   0.30114   0.47881  -0.09811
C          C       0.77924   0.51377   0.51380  -0.14618
C          C       0.68989   0.48543   0.45884  -0.10004
C          C       0.13152   0.67085   0.58531   0.09775
C          C      -0.00149   0.61008   0.57998  -0.17368
C          C       0.91611   0.58019   0.51980   0.15047
C          C       0.97487   0.61705   0.46728  -0.17913
C          C       0.10791   0.67761   0.47595   0.08767
C          C       0.06150   0.05175   0.89346   0.53178
C          C       0.16802   0.04756   0.94403  -0.02592
C          C       0.29393   0.11805   0.95836  -0.09381
C          C       0.39602   0.11676   0.00535  -0.13353
C          C       0.37361   0.04735   0.04165   0.11676
C          C       0.24706   0.97655   0.02688  -0.12200
C          C       0.14678   0.97574   0.97790  -0.10304
C          C       0.48369   0.05329   0.09178  -0.10646
C          C       0.47004   0.01577   0.14535  -0.11661
C          C       0.82829   0.09109   0.24123   0.08919
C          C       0.72636   0.07620   0.19002  -0.17741
C          C       0.58534   0.02893   0.19488   0.15644
C          C       0.55742   0.99490   0.25202  -0.15884
C          C       0.66411   0.01292   0.30166   0.08279
C          C       0.54326   0.85543   0.66149   0.52368
C          C       0.61336   0.91321   0.61443   0.08635
C          C       0.74062   0.98202   0.62494  -0.03551
C          C       0.82799   0.01323   0.68901   0.60133
C          C       0.79254   0.01843   0.57154  -0.05774
C          C       0.78399   0.02890   0.45457   0.59329
C          C       0.72107   0.98620   0.50913  -0.01641
C          C       0.59389   0.91754   0.50220   0.07237
C          C       0.49905   0.86673   0.44087   0.52975
C          C       0.19121   0.16996   0.73546   0.10355
C          C       0.30365   0.22854   0.71331  -0.11180
C          C       0.30531   0.31855   0.71854  -0.04000
C          C       0.19369   0.34622   0.74453  -0.14777
C          C       0.08442   0.28315   0.76495   0.07863
C          C       0.84655   0.78293   0.59839   0.53560
C          C       0.71035   0.71219   0.58143  -0.02150
C          C       0.65497   0.66072   0.62736  -0.07304
C          C       0.52431   0.59687   0.61289  -0.12762
C          C       0.44569   0.58227   0.55242   0.10606
C          C       0.50214   0.63513   0.50676  -0.15175
C          C       0.63291   0.69905   0.52109  -0.09641
C          C       0.22034   0.48603   0.48648  -0.14848
C          C       0.31008   0.51443   0.54127  -0.09864
C          C       0.86802   0.32910   0.41556   0.09328
C          C       0.00124   0.38947   0.42067  -0.17086
C          C       0.08387   0.41942   0.48077   0.14927
C          C       0.02560   0.38271   0.53343  -0.17668
C          C       0.89235   0.32246   0.52497   0.08642
C          C       0.94071   0.94863   0.10614   0.53236
C          C       0.83371   0.95300   0.05583  -0.02404
C          C       0.70730   0.88281   0.04174  -0.09519
C          C       0.60512   0.88430   0.99481  -0.13379
C          C       0.62767   0.95361   0.95841   0.11638
C          C       0.75476   0.02398   0.97291  -0.12172
C          C       0.85522   0.02457   0.02174  -0.09879
C          C       0.51721   0.94819   0.90857  -0.10906
C          C       0.53048   0.98538   0.85484  -0.11589
C          C       0.17173   0.90865   0.75923   0.08940
C          C       0.27400   0.92420   0.81041  -0.17693
C          C       0.41468   0.97209   0.80549   0.15657
C          C       0.44193   0.00605   0.74828  -0.15996
C          C       0.33497   0.98724   0.69866   0.08218
C          C       0.45640   0.14607   0.33972   0.51966
C          C       0.38703   0.08756   0.38657   0.08710
C          C       0.26026   0.01820   0.37568  -0.03516
C          C       0.17298   0.98714   0.31144   0.60110
C          C       0.20888   0.98143   0.42904  -0.05808
C          C       0.21621   0.97059   0.54567   0.59655
C          C       0.28090   0.01309   0.49142  -0.01887
C          C       0.40852   0.08157   0.49863   0.07136
C          C       0.50517   0.13121   0.56001   0.53014
C          C       0.80927   0.83079   0.26429   0.10311
C          C       0.69757   0.77220   0.28691  -0.11203
C          C       0.69634   0.68228   0.28167  -0.03995
C          C       0.80753   0.65466   0.25518  -0.14950
C          C       0.91620   0.71778   0.23443   0.07637
N          N       0.18645   0.70325   0.53392  -0.24245
N          N       0.79742   0.06133   0.29701  -0.26784
N          N       0.54686   0.88662   0.55481  -0.26990
N          N       0.08376   0.19657   0.76090  -0.21922
N          N       0.81334   0.29707   0.46714  -0.23897
N          N       0.20208   0.93834   0.70338  -0.26663
N          N       0.45401   0.11357   0.44616  -0.26654
N          N       0.91658   0.80433   0.23856  -0.21687
O          O       0.11196   0.15961   0.43860  -0.52912
O          O       0.07831   0.20793   0.34822  -0.53758
O          O       0.97100   0.98361   0.86132  -0.49971
O          O       0.06794   0.13197   0.88209  -0.54245
O          O       0.60644   0.86120   0.71467  -0.47175
O          O       0.41914   0.80059   0.63854  -0.58138
O          O       0.78829   0.06392   0.73459  -0.51165
O          O       0.94375   0.99507   0.69510  -0.57359
O          O       0.86078   0.99112   0.41922  -0.53061
O          O       0.76643   0.10361   0.44815  -0.60561
O          O       0.52918   0.88643   0.38745  -0.50150
O          O       0.39143   0.80264   0.45001  -0.57844
O          O       0.88788   0.84066   0.56175  -0.52861
O          O       0.92368   0.78977   0.65084  -0.53712
O          O       0.03272   0.01654   0.13784  -0.49968
O          O       0.93333   0.86850   0.11780  -0.54286
O          O       0.39424   0.13874   0.28589  -0.47158
O          O       0.57873   0.20282   0.36320  -0.57898
O          O       0.21291   0.93688   0.26570  -0.51152
O          O       0.05704   0.00499   0.30519  -0.57339
O          O       0.13999   0.00901   0.58084  -0.53048
O          O       0.23136   0.89525   0.55205  -0.60648
O          O       0.47946   0.10797   0.61277  -0.50120
O          O       0.60942   0.19811   0.55180  -0.57751

