data_crystal

_audit_creation_method 'AiiDA-DDEC plugin'

_cell_length_a        11.19823
_cell_length_b        13.16265
_cell_length_c        23.77952

_cell_angle_alpha     94.30773
_cell_angle_beta     101.75175
_cell_angle_gamma     111.21312

_symmetry_space_group_name_Hall 'P 1'
_symmetry_space_group_name_H-M  'P 1'

loop_
_symmetry_equiv_pos_as_xyz
 'x,y,z'

loop_
_atom_site_label
_atom_site_type_symbol
_atom_site_fract_x
_atom_site_fract_y
_atom_site_fract_z
_atom_site_charge
Eu         Eu      0.38512   0.31801   0.52251   1.68131
Eu         Eu      0.62692   0.58841   0.96140   1.68888
Eu         Eu      0.61504   0.68216   0.47752   1.68090
Eu         Eu      0.37088   0.41057   0.03864   1.68946
H          H       0.63064   0.33856   0.12053   0.11364
H          H       0.74064   0.28441   0.20867   0.10699
H          H       0.89300   0.27004   0.30284   0.11343
H          H       0.06720   0.30195   0.39414   0.11991
H          H       0.32983   0.59003   0.34338   0.12221
H          H       0.23899   0.50538   0.18710   0.14447
H          H       0.34361   0.62902   0.23640   0.13032
H          H       0.24192   0.63552   0.17009   0.13786
H          H       0.14913   0.74628   0.22855   0.12269
H          H       0.25170   0.73883   0.29425   0.13044
H          H       0.07773   0.69397   0.28608   0.13759
H          H       0.98843   0.61884   0.12969   0.12927
H          H       0.49112   0.62729   0.18049   0.12039
H          H       0.62030   0.72143   0.28272   0.12461
H          H       0.77787   0.85055   0.37529   0.12101
H          H       0.96407   0.98976   0.45206   0.12367
H          H       0.15790   0.13487   0.32170   0.11161
H          H       0.06704   0.86996   0.22840   0.12442
H          H       0.16246   0.00977   0.22505   0.12334
H          H       0.04718   0.92144   0.16132   0.13461
H          H       0.93996   0.06513   0.15025   0.13779
H          H       0.05641   0.14883   0.21462   0.13021
H          H       0.88412   0.10990   0.20874   0.12480
H          H       0.78319   0.85529   0.10967   0.12940
H          H       0.55193   0.02429   0.54793   0.12345
H          H       0.60368   0.88016   0.59845   0.12479
H          H       0.64275   0.74598   0.66980   0.12743
H          H       0.68545   0.65331   0.75573   0.11855
H          H       0.57744   0.86854   0.86196   0.13213
H          H       0.60677   0.07171   0.85905   0.13764
H          H       0.57414   0.15887   0.80983   0.12989
H          H       0.71057   0.11884   0.81107   0.12696
H          H       0.30839   0.87818   0.74285   0.12017
H          H       0.33762   0.01597   0.77175   0.12484
H          H       0.37087   0.92650   0.81935   0.13120
H          H       0.45910   0.14636   0.69957   0.10912
H          H       0.36879   0.66044   0.88002   0.11362
H          H       0.25955   0.71519   0.79191   0.10624
H          H       0.10736   0.72981   0.69745   0.11346
H          H       0.93309   0.69807   0.60617   0.11936
H          H       0.67022   0.41004   0.65674   0.12205
H          H       0.76087   0.49456   0.81298   0.14414
H          H       0.65616   0.37088   0.76377   0.13058
H          H       0.75797   0.36448   0.83007   0.13811
H          H       0.85074   0.25359   0.77162   0.12239
H          H       0.74814   0.26087   0.70588   0.13035
H          H       0.92213   0.30589   0.71411   0.13793
H          H       0.01039   0.38018   0.87021   0.13303
H          H       0.50871   0.37254   0.81986   0.12026
H          H       0.37987   0.27874   0.71761   0.12528
H          H       0.22235   0.14943   0.62480   0.12118
H          H       0.03620   0.01052   0.54795   0.12383
H          H       0.84217   0.86520   0.67828   0.11144
H          H       0.93304   0.13006   0.77157   0.12464
H          H       0.83750   0.99027   0.77493   0.12319
H          H       0.95282   0.07858   0.83865   0.13460
H          H       0.05995   0.93492   0.84975   0.13728
H          H       0.94351   0.85109   0.78542   0.12995
H          H       0.11582   0.89004   0.79132   0.12460
H          H       0.21628   0.14404   0.89036   0.12872
H          H       0.44856   0.97603   0.45219   0.12284
H          H       0.39657   0.12005   0.40166   0.12465
H          H       0.35776   0.25420   0.33053   0.12708
H          H       0.31365   0.34639   0.24451   0.11838
H          H       0.42225   0.13171   0.13818   0.12886
H          H       0.39317   0.92855   0.14103   0.13763
H          H       0.42579   0.84130   0.19018   0.13036
H          H       0.28939   0.88136   0.18902   0.12718
H          H       0.69171   0.12186   0.25725   0.12022
H          H       0.66221   0.98405   0.22828   0.12510
H          H       0.62918   0.07364   0.18072   0.13174
H          H       0.54083   0.85372   0.30044   0.10921
C          C       0.73503   0.51544   0.06927   0.60628
C          C       0.80338   0.48194   0.12084  -0.01378
C          C       0.73349   0.38740   0.14275  -0.09412
C          C       0.79499   0.35719   0.19183  -0.12335
C          C       0.92723   0.42371   0.21971   0.03433
C          C       0.01217   0.41625   0.27294   0.02984
C          C       0.98715   0.34012   0.31168  -0.12023
C          C       0.08425   0.35727   0.36232  -0.08965
C          C       0.20704   0.44740   0.37358  -0.01551
C          C       0.30900   0.46504   0.42860   0.61549
C          C       0.23376   0.52179   0.33382  -0.13930
C          C       0.13563   0.50698   0.28418   0.03002
C          C       0.13695   0.57961   0.23718   0.17541
C          C       0.24642   0.58705   0.20555  -0.43157
C          C       0.15462   0.69674   0.26338  -0.42753
C          C      -0.00174   0.51860   0.19767   0.02776
C          C       0.93717   0.54688   0.14796  -0.13506
C          C       0.55217   0.67980   0.07996   0.60560
C          C       0.62913   0.73843   0.14024  -0.01990
C          C       0.58327   0.69926   0.18860  -0.10176
C          C       0.65501   0.75079   0.24505  -0.12552
C          C       0.77433   0.84243   0.25260   0.03004
C          C       0.86657   0.91297   0.30533   0.03283
C          C       0.86159   0.91101   0.36379  -0.11859
C          C       0.96468   0.98952   0.40641  -0.08403
C          C       0.07126   0.06939   0.39103  -0.01802
C          C       0.18104   0.15248   0.43712   0.55393
C          C       0.07497   0.07199   0.33225  -0.13904
C          C       0.97310   0.99371   0.28960   0.02371
C          C       0.95615   0.97722   0.22392   0.17686
C          C       0.06513   0.94221   0.20869  -0.42629
C          C       0.95871   0.08159   0.19787  -0.42670
C          C       0.82234   0.88064   0.20407   0.02348
C          C       0.74991   0.82898   0.14805  -0.13979
C          C       0.46906   0.17646   0.58897   0.55911
C          C       0.50175   0.09253   0.62067  -0.02145
C          C       0.54301   0.01792   0.59235  -0.08657
C          C       0.57164   0.93741   0.62041  -0.11505
C          C       0.56075   0.93306   0.67804   0.02738
C          C       0.58686   0.86087   0.71829   0.03382
C          C       0.62855   0.77277   0.71156  -0.12509
C          C       0.65234   0.72126   0.75940  -0.09597
C          C       0.63449   0.75665   0.81343  -0.02007
C          C       0.65900   0.70331   0.86527   0.54192
C          C       0.59011   0.84330   0.81965  -0.14668
C          C       0.56600   0.89444   0.77233   0.01562
C          C       0.51761   0.98847   0.76896   0.17750
C          C       0.60813   0.09083   0.81496  -0.42331
C          C       0.37460   0.94964   0.77613  -0.42583
C          C       0.52125   0.00913   0.70706   0.02013
C          C       0.49082   0.08792   0.67847  -0.14300
C          C       0.26303   0.48331   0.93094   0.60924
C          C       0.19541   0.51720   0.87940  -0.01354
C          C       0.26592   0.61180   0.85769  -0.09684
C          C       0.20491   0.64228   0.80858  -0.11977
C          C       0.07270   0.57596   0.78052   0.03185
C          C       0.98793   0.58361   0.72727   0.03118
C          C       0.01312   0.65981   0.68859  -0.12060
C          C       0.91603   0.64272   0.63793  -0.08915
C          C       0.79313   0.55268   0.62656  -0.01610
C          C       0.69119   0.53507   0.57147   0.61513
C          C       0.76630   0.47826   0.66627  -0.13930
C          C       0.86432   0.49297   0.71592   0.02854
C          C       0.86274   0.42021   0.76287   0.17484
C          C       0.75340   0.41286   0.79457  -0.43166
C          C       0.84517   0.30307   0.73676  -0.42725
C          C       0.00129   0.48100   0.80239   0.02908
C          C       0.06178   0.45234   0.85208  -0.13904
C          C       0.44735   0.31962   0.92034   0.60555
C          C       0.37053   0.26107   0.86002  -0.02132
C          C       0.41660   0.30051   0.81172  -0.10042
C          C       0.34501   0.24919   0.75522  -0.12579
C          C       0.22568   0.15751   0.74750   0.02783
C          C       0.13353   0.08706   0.69471   0.03333
C          C       0.13854   0.08902   0.63626  -0.11840
C          C       0.03548   0.01059   0.59360  -0.08417
C          C       0.92890   0.93068   0.60897  -0.01855
C          C       0.81916   0.84759   0.56290   0.55424
C          C       0.92511   0.92807   0.66773  -0.13878
C          C       0.02693   0.00631   0.71040   0.02358
C          C       0.04374   0.02267   0.77605   0.17735
C          C       0.93485   0.05777   0.79128  -0.42679
C          C       0.04119   0.91835   0.80214  -0.42587
C          C       0.17750   0.11915   0.79597   0.02387
C          C       0.24974   0.17056   0.85205  -0.13966
C          C       0.53089   0.82344   0.41104   0.55856
C          C       0.49832   0.90751   0.37938  -0.02146
C          C       0.45733   0.98230   0.40775  -0.08628
C          C       0.42873   0.06285   0.37971  -0.11561
C          C       0.43955   0.06716   0.32207   0.02752
C          C       0.41330   0.13934   0.28186   0.03369
C          C       0.37156   0.22737   0.28869  -0.12594
C          C       0.34710   0.27864   0.24083  -0.09559
C          C       0.36464   0.24324   0.18675  -0.01997
C          C       0.33876   0.29600   0.13484   0.54239
C          C       0.40955   0.15691   0.18049  -0.14429
C          C       0.43398   0.10581   0.22778   0.01681
C          C       0.48241   0.01176   0.23110   0.17690
C          C       0.39182   0.90937   0.18511  -0.42405
C          C       0.62540   0.05048   0.22392  -0.42661
C          C       0.47893   0.99106   0.29302   0.02074
C          C       0.50921   0.91217   0.32158  -0.14376
O          O       0.80321   0.57846   0.03966  -0.59103
O          O       0.60775   0.47997   0.05657  -0.70237
O          O       0.43029   0.51989   0.42923  -0.67512
O          O       0.27224   0.42469   0.47204  -0.62563
O          O       0.60555   0.70743   0.03807  -0.61724
O          O       0.43839   0.60300   0.07403  -0.62040
O          O       0.28622   0.21406   0.42338  -0.60737
O          O       0.16871   0.16242   0.48944  -0.58664
O          O       0.48528   0.18230   0.53725  -0.60643
O          O       0.42442   0.24059   0.61379  -0.63700
O          O       0.66763   0.60901   0.86042  -0.58286
O          O       0.66602   0.75294   0.91526  -0.58384
O          O       0.19456   0.41989   0.96032  -0.59323
O          O       0.39031   0.51893   0.94381  -0.70447
O          O       0.56995   0.48011   0.57077  -0.67530
O          O       0.72792   0.57547   0.52804  -0.62501
O          O       0.39441   0.29237   0.96240  -0.61787
O          O       0.56111   0.39624   0.92604  -0.61796
O          O       0.71405   0.78593   0.57665  -0.60789
O          O       0.83148   0.83767   0.51057  -0.58615
O          O       0.51458   0.81764   0.46276  -0.60671
O          O       0.57543   0.75925   0.38621  -0.63615
O          O       0.32765   0.38931   0.13944  -0.58291
O          O       0.33296   0.24674   0.08492  -0.58528

