data_crystal

_audit_creation_method 'AiiDA-DDEC plugin'

_cell_length_a        18.95119
_cell_length_b        18.95145
_cell_length_c        18.95145

_cell_angle_alpha     59.97183
_cell_angle_beta     59.97769
_cell_angle_gamma     59.97769

_symmetry_space_group_name_Hall 'P 1'
_symmetry_space_group_name_H-M  'P 1'

loop_
_symmetry_equiv_pos_as_xyz
 'x,y,z'

loop_
_atom_site_label
_atom_site_type_symbol
_atom_site_fract_x
_atom_site_fract_y
_atom_site_fract_z
_atom_site_charge
Zn         Zn      0.06774   0.49999   0.49999   0.98132
Zn         Zn      0.50000   0.06774   0.93226   0.98124
Zn         Zn      0.93226   0.50001   0.50001   0.98129
Zn         Zn      0.50000   0.93226   0.06774   0.98130
Zn         Zn      0.93226   0.06774   0.50000   0.98122
Zn         Zn      0.50001   0.50001   0.93226   0.98136
Zn         Zn      0.06774   0.93226   0.50000   0.98125
Zn         Zn      0.50000   0.49999   0.06774   0.98141
Zn         Zn      0.50001   0.93226   0.50001   0.98142
Zn         Zn      0.06775   0.50000   0.93226   0.98125
Zn         Zn      0.50000   0.06774   0.49999   0.98141
Zn         Zn      0.93226   0.50000   0.06774   0.98125
H          H       0.23325   0.52745   0.23325   0.13508
H          H       0.52744   0.23329   0.00601   0.13460
H          H       0.00602   0.23328   0.52745   0.13463
H          H       0.23328   0.00599   0.23328   0.13464
H          H       0.00601   0.23327   0.23327   0.13462
H          H       0.23328   0.52744   0.00602   0.13470
H          H       0.23328   0.00602   0.52745   0.13475
H          H       0.52745   0.23324   0.23324   0.13505
H          H       0.52744   0.00601   0.23329   0.13462
H          H       0.23328   0.23328   0.00600   0.13463
H          H       0.23325   0.23324   0.52745   0.13505
H          H       0.00602   0.52744   0.23328   0.13464
H          H       0.76672   0.47255   0.99398   0.13477
H          H       0.47256   0.76675   0.76676   0.13493
H          H       0.99400   0.76672   0.76673   0.13480
H          H       0.76672   0.99398   0.47256   0.13470
H          H       0.99398   0.76672   0.47256   0.13479
H          H       0.76676   0.47255   0.76676   0.13494
H          H       0.76673   0.99400   0.76672   0.13458
H          H       0.47256   0.76671   0.99399   0.13467
H          H       0.47256   0.99399   0.76671   0.13462
H          H       0.76676   0.76675   0.47256   0.13496
H          H       0.76673   0.76671   0.99401   0.13465
H          H       0.99398   0.47255   0.76672   0.13475
C          C       0.07054   0.52370   0.33521   0.59256
C          C       0.11444   0.52851   0.24258  -0.04450
C          C       0.52369   0.07055   0.07055   0.59343
C          C       0.52851   0.11445   0.11445  -0.04511
C          C       0.07054   0.33521   0.52370   0.59260
C          C       0.11444   0.24258   0.52851  -0.04442
C          C       0.33523   0.07054   0.07054   0.59314
C          C       0.24259   0.11445   0.11445  -0.04480
C          C       0.07054   0.07053   0.33523   0.59281
C          C       0.11445   0.11444   0.24259  -0.04462
C          C       0.33522   0.52370   0.07054   0.59274
C          C       0.24258   0.52851   0.11444  -0.04444
C          C       0.07055   0.07055   0.52369   0.59283
C          C       0.11445   0.11445   0.52851  -0.04462
C          C       0.52370   0.33522   0.07054   0.59288
C          C       0.52851   0.24258   0.11443  -0.04473
C          C       0.52370   0.07054   0.33522   0.59280
C          C       0.52851   0.11443   0.24258  -0.04469
C          C       0.07054   0.33523   0.07053   0.59288
C          C       0.11445   0.24259   0.11444  -0.04463
C          C       0.33522   0.07054   0.52370   0.59264
C          C       0.24258   0.11444   0.52851  -0.04429
C          C       0.07055   0.52369   0.07055   0.59286
C          C       0.11445   0.52851   0.11445  -0.04462
C          C       0.92946   0.47631   0.92945   0.59290
C          C       0.88555   0.47149   0.88555  -0.04459
C          C       0.47630   0.92947   0.66478   0.59287
C          C       0.47149   0.88556   0.75742  -0.04476
C          C       0.92947   0.66477   0.92946   0.59291
C          C       0.88555   0.75741   0.88556  -0.04471
C          C       0.66479   0.92947   0.47630   0.59274
C          C       0.75742   0.88556   0.47149  -0.04446
C          C       0.92945   0.92945   0.47631   0.59279
C          C       0.88555   0.88555   0.47149  -0.04453
C          C       0.66479   0.47630   0.92947   0.59262
C          C       0.75742   0.47149   0.88556  -0.04437
C          C       0.92947   0.92946   0.66477   0.59296
C          C       0.88555   0.88556   0.75741  -0.04462
C          C       0.47630   0.66478   0.92947   0.59274
C          C       0.47149   0.75742   0.88557  -0.04494
C          C       0.47631   0.92945   0.92945   0.59330
C          C       0.47150   0.88555   0.88555  -0.04516
C          C       0.92947   0.66479   0.47630   0.59247
C          C       0.88556   0.75742   0.47149  -0.04458
C          C       0.66478   0.92946   0.92946   0.59346
C          C       0.75741   0.88555   0.88556  -0.04487
C          C       0.92947   0.47630   0.66479   0.59252
C          C       0.88556   0.47149   0.75742  -0.04459
C          C       0.19977   0.52861   0.19977  -0.07575
C          C       0.52861   0.19979   0.07183  -0.07499
C          C       0.07184   0.19979   0.52861  -0.07549
C          C       0.19978   0.07182   0.19979  -0.07509
C          C       0.07182   0.19978   0.19978  -0.07508
C          C       0.19979   0.52861   0.07183  -0.07537
C          C       0.19979   0.07183   0.52861  -0.07541
C          C       0.52861   0.19977   0.19977  -0.07567
C          C       0.52861   0.07183   0.19979  -0.07498
C          C       0.19978   0.19979   0.07182  -0.07517
C          C       0.19977   0.19977   0.52861  -0.07587
C          C       0.07184   0.52861   0.19979  -0.07547
C          C       0.80022   0.47139   0.92817  -0.07544
C          C       0.47139   0.80023   0.80023  -0.07549
C          C       0.92819   0.80022   0.80022  -0.07516
C          C       0.80022   0.92817   0.47139  -0.07544
C          C       0.92817   0.80021   0.47139  -0.07529
C          C       0.80023   0.47139   0.80023  -0.07593
C          C       0.80022   0.92818   0.80021  -0.07524
C          C       0.47140   0.80021   0.92817  -0.07476
C          C       0.47140   0.92817   0.80021  -0.07507
C          C       0.80023   0.80023   0.47139  -0.07584
C          C       0.80022   0.80021   0.92819  -0.07507
C          C       0.92817   0.47139   0.80021  -0.07528
O          O       0.11390   0.52105   0.37148  -0.54875
O          O       0.52104   0.11393   0.99353  -0.54946
O          O       0.99351   0.37151   0.52106  -0.54932
O          O       0.37152   0.99351   0.11393  -0.54910
O          O       0.99352   0.11392   0.37152  -0.54910
O          O       0.37152   0.52105   0.99352  -0.54940
O          O       0.11394   0.99353   0.52104  -0.54908
O          O       0.52104   0.37148   0.11390  -0.54906
O          O       0.52106   0.99351   0.37152  -0.54924
O          O       0.11393   0.37152   0.99351  -0.54873
O          O       0.37149   0.11390   0.52104  -0.54892
O          O       0.99353   0.52104   0.11393  -0.54942
O          O       0.88607   0.47896   0.00647  -0.54931
O          O       0.47896   0.88610   0.62852  -0.54939
O          O       0.00648   0.62848   0.88608  -0.54882
O          O       0.62849   0.00648   0.47894  -0.54910
O          O       0.00647   0.88607   0.47896  -0.54919
O          O       0.62852   0.47896   0.88610  -0.54928
O          O       0.88607   0.00649   0.62848  -0.54912
O          O       0.47894   0.62848   0.00649  -0.54885
O          O       0.47896   0.00647   0.88607  -0.54941
O          O       0.88610   0.62851   0.47895  -0.54930
O          O       0.62849   0.88607   0.00649  -0.54914
O          O       0.00649   0.47894   0.62849  -0.54865
O          O       0.88610   0.47895   0.62852  -0.54932
O          O       0.47896   0.88606   0.00647  -0.54932
O          O       0.00649   0.62849   0.47894  -0.54866
O          O       0.62849   0.00649   0.88607  -0.54929
O          O       0.00649   0.88608   0.62849  -0.54878
O          O       0.62849   0.47894   0.00648  -0.54899
O          O       0.88607   0.00647   0.47896  -0.54932
O          O       0.47896   0.62851   0.88610  -0.54933
O          O       0.47894   0.00649   0.62848  -0.54904
O          O       0.88607   0.62848   0.00649  -0.54897
O          O       0.62852   0.88609   0.47896  -0.54925
O          O       0.00647   0.47896   0.88607  -0.54927
O          O       0.11394   0.52104   0.99354  -0.54917
O          O       0.52104   0.11390   0.37148  -0.54905
O          O       0.99352   0.37152   0.11392  -0.54909
O          O       0.37152   0.99351   0.52106  -0.54936
O          O       0.99353   0.11393   0.52104  -0.54944
O          O       0.37149   0.52104   0.11390  -0.54896
O          O       0.11393   0.99351   0.37152  -0.54874
O          O       0.52106   0.37152   0.99351  -0.54924
O          O       0.52104   0.99353   0.11394  -0.54945
O          O       0.11390   0.37148   0.52105  -0.54877
O          O       0.37152   0.11393   0.99351  -0.54909
O          O       0.99351   0.52106   0.37152  -0.54929

