data_crystal

_audit_creation_method 'AiiDA-DDEC plugin'

_cell_length_a        12.72364
_cell_length_b        14.65881
_cell_length_c        23.50907

_cell_angle_alpha     99.73192
_cell_angle_beta     92.13695
_cell_angle_gamma     96.98908

_symmetry_space_group_name_Hall 'P 1'
_symmetry_space_group_name_H-M  'P 1'

loop_
_symmetry_equiv_pos_as_xyz
 'x,y,z'

loop_
_atom_site_label
_atom_site_type_symbol
_atom_site_fract_x
_atom_site_fract_y
_atom_site_fract_z
_atom_site_charge
Mg         Mg      0.47624   0.70309   0.60529   1.50192
Mg         Mg      0.93167   0.32601   0.06482   1.51232
Mg         Mg      0.52377   0.29691   0.39471   1.50191
Mg         Mg      0.06833   0.67399   0.93518   1.51233
Mg         Mg      0.50000   0.50000   0.50000   1.57210
Mg         Mg     -0.00000   0.50000   0.00000   1.59102
Si         Si      0.96899   0.77477   0.36627   0.67913
Si         Si      0.60405   0.75260   0.18933   0.68714
Si         Si      0.03101   0.22524   0.63373   0.67909
Si         Si      0.39595   0.24740   0.81067   0.68710
H          H       0.87657   0.61316   0.41556   0.10866
H          H       0.73401   0.58825   0.48256   0.12395
H          H       0.66094   0.86699   0.48301   0.12795
H          H       0.80200   0.89260   0.41416   0.10001
H          H       0.82488   0.60345   0.31237   0.09500
H          H       0.83199   0.48882   0.22239   0.11925
H          H       0.06951   0.67735   0.16190   0.11787
H          H       0.07435   0.78813   0.25507   0.10315
H          H       0.15386   0.66958   0.33219   0.10347
H          H       0.29076   0.60923   0.38948   0.12308
H          H       0.16252   0.72952   0.54750   0.13232
H          H       0.02106   0.78426   0.49125   0.09755
H          H       0.92980   0.89834   0.27966   0.09453
H          H       0.97214   0.06896   0.28105   0.12095
H          H       0.13080   0.10287   0.44933   0.10860
H          H       0.08657   0.93303   0.44956   0.10217
H          H       0.54242   0.77667   0.31077   0.10512
H          H       0.51520   0.66889   0.38174   0.11526
H          H       0.60723   0.44566   0.25927   0.12260
H          H       0.64270   0.55353   0.18886   0.09353
H          H       0.65125   0.59493   0.10308   0.10352
H          H       0.78276   0.57513   0.02874   0.12124
H          H       0.92469   0.85949   0.08538   0.12193
H          H       0.79868   0.87725   0.16411   0.10276
H          H       0.39495   0.62790   0.18690   0.10304
H          H       0.24248   0.58317   0.11298   0.12252
H          H       0.39052   0.77137   0.00967   0.12242
H          H       0.54726   0.81126   0.08035   0.10539
H          H       0.74772   0.85518   0.28506   0.09329
H          H       0.75581   0.01118   0.34791   0.11175
H          H       0.49048   0.07181   0.24926   0.12626
H          H       0.48353   0.91687   0.18419   0.10339
H          H       0.12343   0.38684   0.58444   0.10870
H          H       0.26599   0.41175   0.51744   0.12413
H          H       0.33906   0.13301   0.51699   0.12790
H          H       0.19800   0.10741   0.58584   0.09985
H          H       0.17512   0.39655   0.68763   0.09508
H          H       0.16801   0.51119   0.77761   0.11931
H          H       0.93049   0.32265   0.83810   0.11775
H          H       0.92565   0.21188   0.74493   0.10295
H          H       0.84614   0.33043   0.66781   0.10342
H          H       0.70924   0.39077   0.61052   0.12305
H          H       0.83748   0.27048   0.45250   0.13232
H          H       0.97894   0.21574   0.50875   0.09751
H          H       0.07020   0.10166   0.72034   0.09449
H          H       0.02786   0.93104   0.71895   0.12082
H          H       0.86920   0.89714   0.55067   0.10859
H          H       0.91343   0.06697   0.55044   0.10234
H          H       0.45758   0.22333   0.68923   0.10509
H          H       0.48480   0.33112   0.61826   0.11524
H          H       0.39278   0.55434   0.74072   0.12276
H          H       0.35730   0.44647   0.81113   0.09354
H          H       0.34875   0.40508   0.89692   0.10369
H          H       0.21724   0.42488   0.97126   0.12130
H          H       0.07531   0.14051   0.91462   0.12171
H          H       0.20132   0.12275   0.83588   0.10274
H          H       0.60505   0.37211   0.81310   0.10315
H          H       0.75752   0.41684   0.88702   0.12264
H          H       0.60948   0.22863   0.99033   0.12230
H          H       0.45274   0.18874   0.91965   0.10530
H          H       0.25228   0.14483   0.71494   0.09335
H          H       0.24419   0.98883   0.65209   0.11180
H          H       0.50952   0.92820   0.75073   0.12603
H          H       0.51647   0.08314   0.81580   0.10334
C          C       0.84931   0.75436   0.40927  -0.19898
C          C       0.82791   0.66839   0.42869  -0.06756
C          C       0.74844   0.65387   0.46663  -0.05044
C          C       0.68902   0.72655   0.48647  -0.00287
C          C       0.70777   0.81192   0.46670  -0.09435
C          C       0.78671   0.82543   0.42828  -0.06776
C          C       0.60888   0.71579   0.53001   0.59347
C          C       0.95179   0.70316   0.29165  -0.21517
C          C       0.88139   0.61929   0.28066  -0.06372
C          C       0.88354   0.55506   0.22977  -0.08913
C          C       0.95237   0.57578   0.18727  -0.02406
C          C       0.01830   0.66158   0.19595  -0.09213
C          C       0.01961   0.72357   0.24809  -0.07650
C          C       0.95599   0.50792   0.13257   0.63342
C          C       0.07794   0.73228   0.40742  -0.19401
C          C       0.15505   0.68265   0.37922  -0.06563
C          C       0.23177   0.64865   0.41081  -0.08540
C          C       0.23338   0.66470   0.47154  -0.01764
C          C       0.15869   0.71593   0.50048  -0.07281
C          C       0.08116   0.74798   0.46852  -0.07063
C          C       0.31542   0.62898   0.50525   0.60184
C          C       0.00375   0.90277   0.36481  -0.21085
C          C       0.97273   0.94253   0.31732  -0.07719
C          C       0.99663   0.03809   0.31758  -0.09186
C          C       0.05355   0.09577   0.36528  -0.03524
C          C       0.08560   0.05747   0.41283  -0.09120
C          C       0.06049   0.96204   0.41254  -0.06575
C          C       0.08052   0.19694   0.36451   0.50168
C          C       0.59419   0.67312   0.24419  -0.20610
C          C       0.55784   0.70466   0.29908  -0.07474
C          C       0.54171   0.64485   0.33900  -0.08998
C          C       0.55920   0.55133   0.32432  -0.02401
C          C       0.59448   0.51852   0.26976  -0.09404
C          C       0.61296   0.57927   0.23055  -0.07173
C          C       0.54142   0.48781   0.36739   0.62380
C          C       0.71634   0.73714   0.14008  -0.19931
C          C       0.71325   0.65226   0.10118  -0.07530
C          C       0.78558   0.64102   0.05843  -0.07738
C          C       0.86099   0.71655   0.05223  -0.02630
C          C       0.86586   0.80158   0.09062  -0.08916
C          C       0.79502   0.81097   0.13464  -0.07924
C          C       0.93336   0.70479   0.00451   0.60134
C          C       0.48183   0.72311   0.13909  -0.21027
C          C       0.39478   0.65913   0.14802  -0.07519
C          C       0.30930   0.63384   0.10701  -0.09222
C          C       0.30846   0.67443   0.05708  -0.03172
C          C       0.39341   0.74021   0.04841  -0.09630
C          C       0.47977   0.76295   0.08857  -0.07798
C          C       0.21733   0.64901   0.01334   0.61789
C          C       0.61521   0.87492   0.22995  -0.21454
C          C       0.69256   0.90301   0.27610  -0.08023
C          C       0.69680   0.98948   0.31193  -0.10167
C          C       0.62237   0.04924   0.30242  -0.02918
C          C       0.54666   0.02370   0.25587  -0.08889
C          C       0.54354   0.93713   0.21983  -0.07136
C          C       0.61935   0.13777   0.34414   0.55969
C          C       0.15069   0.24565   0.59073  -0.19899
C          C       0.17209   0.33161   0.57131  -0.06741
C          C       0.25156   0.34613   0.53337  -0.05036
C          C       0.31098   0.27345   0.51353  -0.00293
C          C       0.29223   0.18809   0.53330  -0.09441
C          C       0.21329   0.17457   0.57172  -0.06792
C          C       0.39112   0.28422   0.46999   0.59353
C          C       0.04821   0.29685   0.70835  -0.21533
C          C       0.11861   0.38072   0.71934  -0.06372
C          C       0.11646   0.44494   0.77023  -0.08883
C          C       0.04763   0.42423   0.81273  -0.02412
C          C       0.98170   0.33843   0.80405  -0.09225
C          C       0.98039   0.27644   0.75191  -0.07632
C          C       0.04401   0.49208   0.86743   0.63326
C          C       0.92206   0.26773   0.59258  -0.19415
C          C       0.84495   0.31735   0.62078  -0.06563
C          C       0.76823   0.35136   0.58919  -0.08532
C          C       0.76663   0.33530   0.52846  -0.01753
C          C       0.84131   0.28407   0.49952  -0.07276
C          C       0.91884   0.25202   0.53148  -0.07057
C          C       0.68458   0.37103   0.49474   0.60159
C          C       0.99625   0.09723   0.63519  -0.21056
C          C       0.02727   0.05748   0.68268  -0.07715
C          C       0.00337   0.96191   0.68242  -0.09192
C          C       0.94645   0.90423   0.63472  -0.03541
C          C       0.91440   0.94253   0.58716  -0.09106
C          C       0.93952   0.03797   0.58746  -0.06593
C          C       0.91948   0.80306   0.63549   0.50177
C          C       0.40581   0.32689   0.75581  -0.20609
C          C       0.44216   0.29534   0.70092  -0.07515
C          C       0.45829   0.35516   0.66100  -0.08978
C          C       0.44080   0.44867   0.67568  -0.02387
C          C       0.40552   0.48149   0.73023  -0.09398
C          C       0.38704   0.42073   0.76945  -0.07187
C          C       0.45858   0.51220   0.63261   0.62356
C          C       0.28366   0.26286   0.85991  -0.19913
C          C       0.28675   0.34774   0.89882  -0.07551
C          C       0.21442   0.35899   0.94157  -0.07702
C          C       0.13901   0.28345   0.94777  -0.02655
C          C       0.13414   0.19843   0.90938  -0.08899
C          C       0.20498   0.18904   0.86536  -0.07947
C          C       0.06664   0.29521   0.99549   0.60151
C          C       0.51817   0.27689   0.86090  -0.21016
C          C       0.60522   0.34088   0.85198  -0.07508
C          C       0.69070   0.36616   0.89299  -0.09216
C          C       0.69154   0.32557   0.94292  -0.03179
C          C       0.60659   0.25980   0.95159  -0.09636
C          C       0.52023   0.23705   0.91143  -0.07814
C          C       0.78267   0.35100   0.98666   0.61806
C          C       0.38479   0.12508   0.77004  -0.21451
C          C       0.30744   0.09700   0.72390  -0.08015
C          C       0.30320   0.01053   0.68806  -0.10157
C          C       0.37763   0.95076   0.69758  -0.02934
C          C       0.45334   0.97630   0.74413  -0.08879
C          C       0.45646   0.06287   0.78017  -0.07132
C          C       0.38065   0.86224   0.65586   0.55946
O          O       0.57195   0.63384   0.53991  -0.76762
O          O       0.57684   0.78723   0.55903  -0.61381
O          O       0.93064   0.42042   0.13447  -0.72490
O          O       0.98381   0.54040   0.08807  -0.67906
O          O       0.35981   0.56012   0.48253  -0.58051
O          O       0.33858   0.67077   0.55753  -0.59874
O          O       0.05845   0.23182   0.32018  -0.34574
O          O       0.12661   0.25452   0.40766  -0.34530
O          O       0.54049   0.52601   0.42001  -0.66054
O          O       0.52930   0.39986   0.34851  -0.66372
O          O       0.94670   0.62036   0.98010  -0.80470
O          O       0.98368   0.77292   0.98558  -0.62622
O          O       0.15284   0.57590   0.01414  -0.69910
O          O       0.20778   0.70422   0.97671  -0.71019
O          O       0.68227   0.15449   0.38871  -0.38685
O          O       0.55127   0.19168   0.33380  -0.64297
O          O       0.42805   0.36616   0.46009  -0.76738
O          O       0.42316   0.21278   0.44096  -0.61404
O          O       0.06936   0.57959   0.86553  -0.72455
O          O       0.01619   0.45960   0.91193  -0.67919
O          O       0.64019   0.43989   0.51747  -0.58038
O          O       0.66142   0.32923   0.44246  -0.59857
O          O       0.94155   0.76819   0.67981  -0.34597
O          O       0.87339   0.74548   0.59234  -0.34531
O          O       0.45951   0.47400   0.57999  -0.66042
O          O       0.47070   0.60015   0.65148  -0.66354
O          O       0.05330   0.37964   0.01990  -0.80463
O          O       0.01632   0.22708   0.01442  -0.62650
O          O       0.84716   0.42410   0.98586  -0.69890
O          O       0.79222   0.29578   0.02329  -0.71054
O          O       0.31773   0.84552   0.61129  -0.38662
O          O       0.44873   0.80832   0.66620  -0.64304

