data_crystal

_audit_creation_method 'AiiDA-DDEC plugin'

_cell_length_a        11.23272
_cell_length_b        11.21497
_cell_length_c        16.44448

_cell_angle_alpha     90.29421
_cell_angle_beta     90.22488
_cell_angle_gamma     92.84044

_symmetry_space_group_name_Hall 'P 1'
_symmetry_space_group_name_H-M  'P 1'

loop_
_symmetry_equiv_pos_as_xyz
 'x,y,z'

loop_
_atom_site_label
_atom_site_type_symbol
_atom_site_fract_x
_atom_site_fract_y
_atom_site_fract_z
_atom_site_charge
K          K       0.84088   0.06337   0.94668   0.89892
K          K       0.93978   0.15737   0.55248   0.90029
K          K       0.15576   0.93849   0.05395   0.89987
K          K       0.06209   0.83937   0.44812   0.89873
Zn         Zn      0.02859   0.97185   0.25165   0.92479
Zn         Zn      0.97031   0.02828   0.74872   0.92586
Zn         Zn      0.50016  -0.00076   0.00199   0.81799
Zn         Zn     -0.00053   0.50005   0.50198   0.82010
H          H       0.83904   0.28029   0.19383   0.14467
H          H       0.69849   0.25119   0.14956   0.12869
H          H       0.74179   0.39814   0.18173   0.12486
H          H       0.56784   0.42442   0.97896   0.13354
H          H       0.59716   0.40109   0.08236   0.14004
H          H       0.61890   0.36455   0.86367   0.12529
H          H       0.74136   0.37291   0.79773   0.13975
H          H       0.69560   0.50402   0.84626   0.13236
H          H       0.16278   0.27275   0.00107   0.13196
H          H       0.17371   0.41268   0.95136   0.12051
H          H       0.12819   0.27990   0.89730   0.14694
H          H       0.12161   0.32286   0.10865   0.13257
H          H       0.00969   0.35002   0.17849   0.12342
H          H       0.91282   0.45524   0.79003   0.11987
H          H       0.05473   0.42923   0.82765   0.13018
H          H       0.71980   0.16062   0.30652   0.14445
H          H       0.74846   0.30160   0.35081   0.12774
H          H       0.60192   0.25781   0.31866   0.12543
H          H       0.57388   0.43154   0.52101   0.13322
H          H       0.60336   0.40384   0.41810   0.13983
H          H       0.63553   0.38112   0.63649   0.12549
H          H       0.62694   0.25896   0.70268   0.13946
H          H       0.49608   0.30467   0.65407   0.13235
H          H       0.72680   0.83650   0.49891   0.13297
H          H       0.58697   0.82553   0.54868   0.12028
H          H       0.71961   0.87075   0.60266   0.14702
H          H       0.67482   0.87751   0.39141   0.13255
H          H       0.65211   0.99048   0.32143   0.12294
H          H       0.54654   0.08719   0.71101   0.12060
H          H       0.57154   0.94470   0.67331   0.13103
H          H       0.16070   0.71987   0.80686   0.14450
H          H       0.30141   0.74841   0.85110   0.12824
H          H       0.25749   0.60166   0.81891   0.12587
H          H       0.43044   0.57341   0.02141   0.13262
H          H       0.40302   0.60313   0.91850   0.14020
H          H       0.38036   0.63580   0.13673   0.12490
H          H       0.25861   0.62692   0.20319   0.13970
H          H       0.30385   0.49617   0.15382   0.13310
H          H       0.83650   0.72769  -0.00073   0.13363
H          H       0.82595   0.58765   0.04897   0.12048
H          H       0.87059   0.72067   0.10310   0.14747
H          H       0.87774   0.67561   0.89145   0.13326
H          H       0.99076   0.65185   0.82173   0.12328
H          H       0.08683   0.54647   0.21114   0.12167
H          H       0.94449   0.57279   0.17404   0.13068
H          H       0.27977   0.83849   0.69374   0.14491
H          H       0.25105   0.69768   0.64934   0.12879
H          H       0.39766   0.74142   0.68143   0.12561
H          H       0.42497   0.56778   0.47842   0.13351
H          H       0.39930   0.59611   0.58173   0.13995
H          H       0.36449   0.61857   0.36321   0.12608
H          H       0.37304   0.74127   0.29743   0.13997
H          H       0.50378   0.69559   0.34615   0.13228
H          H       0.27334   0.16349   0.50162   0.13169
H          H       0.41303   0.17387   0.45171   0.12008
H          H       0.28013   0.12909   0.39783   0.14750
H          H       0.32244   0.12180   0.60913   0.13295
H          H       0.34905   0.00940   0.67867   0.12414
H          H       0.45250   0.91283   0.28921   0.12191
H          H       0.42781   0.05516   0.32739   0.13135
C          C       0.77394   0.31721   0.15258  -0.41393
C          C       0.82482   0.34240   0.06899   0.04360
C          C       0.74771   0.36846   0.00443  -0.01874
C          C       0.61527   0.36744   0.02090  -0.32576
C          C       0.55942   0.24168   0.01457   0.53294
C          C       0.70749   0.40796   0.85497  -0.41172
C          C       0.79137   0.38559   0.92492   0.04662
C          C       0.91444   0.37736   0.91044   0.01384
C          C       0.99218   0.34833   0.97428   0.06389
C          C       0.94763   0.33415   0.05386   0.01388
C          C       0.12102   0.32761   0.95525  -0.42107
C          C       0.02781   0.30040   0.12273  -0.34169
C          C       0.01746   0.16630   0.14184   0.64112
C          C       0.96522   0.27554   0.77486   0.64649
C          C       0.96251   0.39177   0.82543  -0.33519
C          C       0.68277   0.22582   0.34780  -0.41297
C          C       0.65753   0.17483   0.43137   0.04297
C          C       0.63170   0.25201   0.49606  -0.01677
C          C       0.63322   0.38476   0.48024  -0.32583
C          C       0.75823   0.44081   0.48931   0.53431
C          C       0.59199   0.29254   0.64537  -0.41237
C          C       0.61423   0.20826   0.57547   0.04782
C          C       0.62204   0.08503   0.58976   0.01567
C          C       0.65120   0.00719   0.52595   0.06540
C          C       0.66538   0.05179   0.44645   0.01363
C          C       0.67194   0.87817   0.54481  -0.42269
C          C       0.69935   0.97118   0.37782  -0.33913
C          C       0.83354   0.97986   0.36018   0.64176
C          C       0.72645   0.03474   0.72324   0.64619
C          C       0.60886   0.03714   0.67478  -0.33594
C          C       0.22566   0.68271   0.84813  -0.41360
C          C       0.17455   0.65780   0.93174   0.04365
C          C       0.25138   0.63198   0.99650  -0.01830
C          C       0.38393   0.63297   0.98071  -0.32436
C          C       0.44033   0.75797   0.98961   0.53344
C          C       0.29187   0.59233   0.14565  -0.41315
C          C       0.20763   0.61517   0.07601   0.04754
C          C       0.08467   0.62377   0.09058   0.01500
C          C       0.00714   0.65244   0.02650   0.06420
C          C       0.05169   0.66600   0.94684   0.01435
C          C       0.87820   0.67297   0.04520  -0.42367
C          C       0.97143   0.69971   0.87798  -0.34159
C          C       0.98009   0.83415   0.86008   0.64397
C          C       0.03477   0.72691   0.22562   0.64350
C          C       0.03688   0.60993   0.17584  -0.33638
C          C       0.31678   0.77342   0.65236  -0.41474
C          C       0.34201   0.82456   0.56883   0.04236
C          C       0.36823   0.74756   0.50413  -0.01811
C          C       0.36713   0.61489   0.52006  -0.32575
C          C       0.24166   0.55913   0.51249   0.53515
C          C       0.40780   0.70736   0.35469  -0.41325
C          C       0.38525   0.79138   0.42469   0.04821
C          C       0.37705   0.91461   0.41048   0.01498
C          C       0.34811   0.99239   0.47443   0.06519
C          C       0.33384   0.94760   0.55389   0.01510
C          C       0.32786   0.12155   0.45565  -0.42177
C          C       0.29996   0.02775   0.62283  -0.34151
C          C       0.16615   0.01753   0.64171   0.63900
C          C       0.27297   0.96670   0.27692   0.64591
C          C       0.39031   0.96283   0.32554  -0.33896
O          O       0.61824   0.15095   0.00587  -0.49068
O          O       0.44116   0.23726   0.01945  -0.06756
O          O       0.98809   0.09180   0.08684  -0.66931
O          O       0.04266   0.14046   0.21577  -0.57180
O          O       0.95869   0.17732   0.81651  -0.62495
O          O       0.38370   0.11834   0.01180  -0.42997
O          O       0.97534   0.28391   0.69935  -0.63300
O          O       0.84849   0.38192   0.49961  -0.49017
O          O       0.76260   0.55923   0.48424  -0.06682
O          O       0.90737   0.00604   0.41628  -0.67156
O          O       0.86006   0.95733   0.28589  -0.56869
O          O       0.82330   0.04123   0.68016  -0.62357
O          O       0.88119   0.61703   0.49208  -0.43179
O          O       0.72131   0.02464   0.79880  -0.63123
O          O       0.38188   0.84868  -0.00016  -0.48935
O          O       0.55848   0.76185   0.98388  -0.06702
O          O       0.00601   0.90806   0.91622  -0.67172
O          O       0.95734   0.86036   0.78578  -0.57139
O          O       0.04125   0.82409   0.18299  -0.62099
O          O       0.61654   0.88075   0.98873  -0.43065
O          O       0.02490   0.72120   0.30125  -0.63356
O          O       0.15148   0.61789   0.50153  -0.49388
O          O       0.23685   0.44095   0.51942  -0.06734
O          O       0.09175   0.98821   0.58670  -0.66962
O          O       0.13999   0.04282   0.71560  -0.56930
O          O       0.17629   0.96358   0.32012  -0.62075
O          O       0.11805   0.38338   0.51196  -0.43088
O          O       0.27855   0.97530   0.20127  -0.63208

