data_crystal

_audit_creation_method 'AiiDA-DDEC plugin'

_cell_length_a         9.83825
_cell_length_b        17.81867
_cell_length_c        21.78814

_cell_angle_alpha     102.36135
_cell_angle_beta     89.99495
_cell_angle_gamma     90.00359

_symmetry_space_group_name_Hall 'P 1'
_symmetry_space_group_name_H-M  'P 1'

loop_
_symmetry_equiv_pos_as_xyz
 'x,y,z'

loop_
_atom_site_label
_atom_site_type_symbol
_atom_site_fract_x
_atom_site_fract_y
_atom_site_fract_z
_atom_site_charge
Mg         Mg      0.10070   0.21879   0.70750   1.54073
Mg         Mg      0.77195   0.77446   0.93019   1.51658
Mg         Mg      0.06196   0.28726   0.86554   1.57717
Mg         Mg      0.60070   0.78117   0.79250   1.54085
Mg         Mg      0.27185   0.22552   0.56971   1.51745
Mg         Mg      0.56196   0.71273   0.63442   1.57757
Mg         Mg      0.89931   0.78121   0.29250   1.54071
Mg         Mg      0.22806   0.22554   0.06981   1.51653
Mg         Mg      0.93804   0.71274   0.13446   1.57714
Mg         Mg      0.39930   0.21883   0.20750   1.54086
Mg         Mg      0.72816   0.77449   0.43029   1.51732
Mg         Mg      0.43804   0.28727   0.36558   1.57734
H          H       0.01148   0.99423   0.93981   0.14003
H          H       0.10657   0.11544   0.90059   0.12807
H          H       0.75660   0.55902   0.68652   0.13033
H          H       0.84170   0.41399   0.67241   0.13476
H          H       0.54947   0.22024   0.61207   0.13199
H          H       0.80150   0.21089   0.65158   0.14655
H          H       0.51154   0.00562   0.56006   0.14023
H          H       0.60665   0.88454   0.59945   0.12800
H          H       0.25658   0.44089   0.81342   0.13030
H          H       0.34169   0.58590   0.82755   0.13473
H          H       0.04948   0.77976   0.88794   0.13178
H          H       0.30153   0.78914   0.84844   0.14639
H          H       0.98852   0.00577   0.06019   0.14001
H          H       0.89344   0.88457   0.09941   0.12792
H          H       0.24341   0.44099   0.31348   0.13036
H          H       0.15831   0.58601   0.32759   0.13490
H          H       0.45054   0.77976   0.38793   0.13218
H          H       0.19851   0.78912   0.34843   0.14659
H          H       0.48847   0.99438   0.43994   0.14013
H          H       0.39336   0.11546   0.40055   0.12786
H          H       0.74343   0.55911   0.18658   0.13045
H          H       0.65832   0.41410   0.17245   0.13469
H          H       0.95053   0.22024   0.11206   0.13184
H          H       0.69847   0.21087   0.15156   0.14646
C          C       0.01719   0.23639   0.56790   0.61112
C          C       0.51635   0.25780   0.48820   0.65326
C          C       0.98126   0.01149   0.89692  -0.10829
C          C       0.81415   0.89899   0.86069   0.64150
C          C       0.00482   0.13851   0.78131   0.59570
C          C       0.80808   0.66102   0.80750   0.64562
C          C       0.86911   0.24100   0.56444  -0.12742
C          C       0.84511   0.58045   0.78022  -0.12916
C          C       0.97766   0.37431   0.77850   0.63491
C          C       0.88709   0.97003   0.85556  -0.11585
C          C       0.92233   0.44654   0.76738  -0.13751
C          C       0.97415   0.08193   0.81859  -0.15984
C          C       0.63440   0.25067   0.52781  -0.14765
C          C       0.03125   0.07559   0.87586  -0.10207
C          C       0.81316   0.53613   0.72122  -0.11263
C          C       0.85706   0.45943   0.71388  -0.09974
C          C       0.63939   0.23083   0.58625  -0.09591
C          C       0.77361   0.22580   0.60742  -0.09024
C          C       0.51721   0.76360   0.93208   0.61112
C          C       0.01631   0.74221   0.01181   0.65299
C          C       0.48121   0.98843   0.60298  -0.10838
C          C       0.31421   0.10103   0.63933   0.64076
C          C       0.50481   0.86150   0.71866   0.59525
C          C       0.30811   0.33883   0.69251   0.64497
C          C       0.36912   0.75901   0.93556  -0.12763
C          C       0.34506   0.41944   0.71969  -0.12969
C          C       0.47766   0.62565   0.72148   0.63488
C          C       0.38702   0.02991   0.64435  -0.11595
C          C       0.42231   0.55340   0.73257  -0.13752
C          C       0.47412   0.91807   0.68138  -0.15973
C          C       0.13438   0.74935   0.97220  -0.14760
C          C       0.53124   0.92439   0.62410  -0.10236
C          C       0.31312   0.46377   0.77870  -0.11243
C          C       0.35703   0.54048   0.78606  -0.09920
C          C       0.13939   0.76918   0.91376  -0.09603
C          C       0.27362   0.77421   0.89259  -0.09007
C          C       0.98282   0.76361   0.43210   0.61149
C          C       0.48366   0.74220   0.51180   0.65332
C          C       0.01875   0.98851   0.10308  -0.10807
C          C       0.18586   0.10101   0.13931   0.64155
C          C       0.99519   0.86150   0.21869   0.59586
C          C       0.19193   0.33899   0.19250   0.64553
C          C       0.13090   0.75900   0.43556  -0.12765
C          C       0.15490   0.41955   0.21978  -0.12915
C          C       0.02235   0.62569   0.22150   0.63486
C          C       0.11292   0.02997   0.14444  -0.11603
C          C       0.07768   0.55346   0.23262  -0.13740
C          C       0.02586   0.91807   0.18141  -0.16000
C          C       0.36561   0.74934   0.47219  -0.14760
C          C       0.96876   0.92441   0.12414  -0.10236
C          C       0.18685   0.46387   0.27878  -0.11256
C          C       0.14295   0.54058   0.28612  -0.09979
C          C       0.36062   0.76917   0.41375  -0.09563
C          C       0.22639   0.77420   0.39258  -0.09035
C          C       0.48279   0.23640   0.06792   0.61150
C          C       0.98370   0.25780   0.98819   0.65289
C          C       0.51880   0.01157   0.39702  -0.10829
C          C       0.68580   0.89898   0.36067   0.64086
C          C       0.49520   0.13850   0.28134   0.59516
C          C       0.69189   0.66118   0.30750   0.64488
C          C       0.63089   0.24099   0.06444  -0.12771
C          C       0.65494   0.58056   0.28031  -0.12965
C          C       0.52235   0.37435   0.27852   0.63499
C          C       0.61299   0.97009   0.35565  -0.11606
C          C       0.57769   0.44661   0.26743  -0.13750
C          C       0.52589   0.08193   0.31862  -0.15967
C          C       0.86563   0.25065   0.02780  -0.14759
C          C       0.46877   0.07562   0.37590  -0.10242
C          C       0.68689   0.53623   0.22131  -0.11224
C          C       0.64298   0.45952   0.21394  -0.09935
C          C       0.86062   0.23082   0.08624  -0.09581
C          C       0.72639   0.22579   0.10741  -0.09034
S          S       0.85967   0.00892   0.79074   0.23335
S          S       0.92868   0.52812   0.82656   0.21278
S          S       0.79463   0.26331   0.49903   0.21921
S          S       0.35954   0.99102   0.70917   0.23350
S          S       0.42868   0.47182   0.67338   0.21237
S          S       0.29460   0.73670   0.00097   0.21912
S          S       0.14034   0.99108   0.20926   0.23373
S          S       0.07133   0.47189   0.17344   0.21256
S          S       0.20538   0.73669   0.50097   0.21896
S          S       0.64047   0.00898   0.29083   0.23372
S          S       0.57133   0.52819   0.32663   0.21227
S          S       0.70540   0.26330  -0.00097   0.21905
O          O       0.09335   0.19396   0.80398  -0.83448
O          O       0.83979   0.87144   0.90929  -0.70591
O          O       0.96709   0.31323   0.73668  -0.67512
O          O       0.75235   0.70044   0.77225  -0.69107
O          O       0.03347   0.37833   0.83345  -0.75380
O          O       0.95454   0.13587   0.72782  -0.57465
O          O       0.73386   0.87123   0.81605  -0.67213
O          O       0.83369   0.68490   0.86628  -0.72631
O          O       0.39889   0.23516   0.49984  -0.68200
O          O       0.54091   0.28633   0.43959  -0.74439
O          O       0.07336   0.21627   0.61555  -0.77656
O          O       0.09282   0.24977   0.52400  -0.63140
O          O       0.59333   0.80604   0.69597  -0.83477
O          O       0.33999   0.12867   0.59082  -0.70516
O          O       0.46710   0.68671   0.76332  -0.67496
O          O       0.25225   0.29954   0.72785  -0.69049
O          O       0.53348   0.62167   0.66653  -0.75396
O          O       0.45457   0.86413   0.77216  -0.57426
O          O       0.23375   0.12869   0.68399  -0.67199
O          O       0.33383   0.31479   0.63377  -0.72631
O          O       0.89884   0.76482   0.00014  -0.68135
O          O       0.04086   0.71371   0.06043  -0.74442
O          O       0.57339   0.78372   0.88443  -0.77655
O          O       0.59284   0.75023   0.97599  -0.63086
O          O       0.90666   0.80604   0.19602  -0.83477
O          O       0.16022   0.12857   0.09071  -0.70598
O          O       0.03291   0.68677   0.26332  -0.67487
O          O       0.24766   0.29957   0.22776  -0.69108
O          O       0.96654   0.62167   0.16655  -0.75396
O          O       0.04546   0.86414   0.27218  -0.57454
O          O       0.26615   0.12877   0.18395  -0.67191
O          O       0.16632   0.31510   0.13372  -0.72632
O          O       0.60112   0.76484   0.50016  -0.68171
O          O       0.45910   0.71367   0.56041  -0.74469
O          O       0.92665   0.78374   0.38445  -0.77670
O          O       0.90718   0.75023   0.47600  -0.63165
O          O       0.40668   0.19396   0.30403  -0.83476
O          O       0.66002   0.87133   0.40918  -0.70542
O          O       0.53291   0.31329   0.23668  -0.67500
O          O       0.74776   0.70046   0.27215  -0.69038
O          O       0.46653   0.37833   0.33347  -0.75408
O          O       0.54544   0.13588   0.22784  -0.57412
O          O       0.76626   0.87131   0.31601  -0.67180
O          O       0.66617   0.68522   0.36623  -0.72628
O          O       0.10117   0.23518  -0.00014  -0.68113
O          O       0.95915   0.28629   0.93957  -0.74438
O          O       0.42662   0.21628   0.11557  -0.77681
O          O       0.40716   0.24977   0.02401  -0.63106

