data_crystal

_audit_creation_method 'AiiDA-DDEC plugin'

_cell_length_a        13.97903
_cell_length_b        14.21388
_cell_length_c        17.95662

_cell_angle_alpha     99.66324
_cell_angle_beta     112.59629
_cell_angle_gamma     90.13170

_symmetry_space_group_name_Hall 'P 1'
_symmetry_space_group_name_H-M  'P 1'

loop_
_symmetry_equiv_pos_as_xyz
 'x,y,z'

loop_
_atom_site_label
_atom_site_type_symbol
_atom_site_fract_x
_atom_site_fract_y
_atom_site_fract_z
_atom_site_charge
Eu         Eu      0.90241   0.46386   0.38945   1.67284
Eu         Eu      0.51149   0.03473   0.61100   1.68831
Eu         Eu      0.09770   0.53554   0.61025   1.68497
Eu         Eu      0.48880   0.96564   0.38884   1.67617
H          H       0.01855   0.56052   0.18704   0.12211
H          H       0.99657   0.62022   0.05979   0.11406
H          H       0.66308   0.58295   0.98214   0.11159
H          H       0.68768   0.52848   0.11225   0.12692
H          H       0.96454   0.59321   0.93401   0.10489
H          H       0.93706   0.62753   0.79891   0.12499
H          H       0.62686   0.70650   0.76768   0.12293
H          H       0.65717   0.67708   0.90490   0.10942
H          H       0.86386   0.57897   0.66728   0.13051
H          H       0.68480   0.70293   0.45812   0.13417
H          H       0.65052   0.79389   0.68577   0.11661
H          H       0.83203   0.94033   0.81287   0.12187
H          H       0.93736   0.88046   0.93970   0.11332
H          H       0.68301   0.91603   0.01979   0.11034
H          H       0.57684   0.97042   0.88971   0.12654
H          H       0.02954   0.90782   0.06419   0.10387
H          H       0.13847   0.87519   0.19967   0.12338
H          H       0.86178   0.79556   0.23461   0.12285
H          H       0.75366   0.82376   0.09748   0.11055
H          H       0.19745   0.92297   0.33182   0.13117
H          H       0.22625   0.79875   0.54106   0.13519
H          H       0.96461   0.70876   0.31398   0.11666
H          H       0.98093   0.44003   0.81344   0.12203
H          H       0.00333   0.37976   0.94052   0.11368
H          H       0.33673   0.41680   0.01763   0.11119
H          H       0.31166   0.47081   0.88723   0.12642
H          H       0.03541   0.40667   0.06596   0.10447
H          H       0.06288   0.37248   0.20109   0.12397
H          H       0.37314   0.29366   0.23248   0.12314
H          H       0.34286   0.32300   0.09525   0.10955
H          H       0.13597   0.42089   0.33281   0.13030
H          H       0.31606   0.29771   0.54218   0.13476
H          H       0.34966   0.20644   0.31427   0.11675
H          H       0.16823   0.06037   0.18723   0.12137
H          H       0.06258   0.11970   0.06019   0.11417
H          H       0.31670   0.08408   0.97985   0.11096
H          H       0.42283   0.02907   0.10964   0.12626
H          H       0.97041   0.09211   0.93572   0.10397
H          H       0.86151   0.12448   0.80011   0.12424
H          H       0.13828   0.20449   0.76534   0.12312
H          H       0.24636   0.17636   0.90257   0.11356
H          H       0.80283   0.07680   0.66830   0.13133
H          H       0.77305   0.20197   0.45962   0.13555
H          H       0.03543   0.29165   0.68634   0.11586
C          C       0.86590   0.49316   0.22802   0.54542
C          C       0.85407   0.53801   0.15575  -0.00646
C          C       0.94124   0.56590   0.14148  -0.09009
C          C       0.92836   0.59868   0.06976  -0.13459
C          C       0.82798   0.60464   0.00985   0.07213
C          C       0.74127   0.58052   0.02725  -0.12891
C          C       0.75400   0.54846   0.09911  -0.09627
C          C       0.81298   0.63131   0.93076   0.06901
C          C       0.89115   0.61998   0.89880  -0.12341
C          C       0.87508   0.63840   0.82157  -0.12184
C          C       0.77914   0.66949   0.77204   0.08900
C          C       0.70175   0.68344   0.80456  -0.12261
C          C       0.71846   0.66528   0.88192  -0.12219
C          C       0.75829   0.68312   0.68791   0.05681
C          C       0.80672   0.62864   0.64084  -0.12084
C          C       0.77889   0.63486   0.55840  -0.02840
C          C       0.70564   0.69793   0.52212  -0.07686
C          C       0.66089   0.75587   0.56905  -0.03539
C          C       0.68627   0.74746   0.65083  -0.12240
C          C       0.82327   0.57234   0.50630   0.61074
C          C       0.58624   0.82718   0.53252   0.63072
C          C       0.63708   0.00500   0.77238   0.54364
C          C       0.69889   0.96137   0.84497  -0.00446
C          C       0.80029   0.93453   0.85871  -0.09292
C          C       0.85936   0.90178   0.93022  -0.13392
C          C       0.81906   0.89524   0.99053   0.07024
C          C       0.71546   0.91896   0.97404  -0.12997
C          C       0.65610   0.95080   0.90238  -0.09523
C          C       0.88283   0.86891   0.06956   0.07061
C          C       0.99244   0.88097   0.10044  -0.12451
C          C       0.05417   0.86360   0.17766  -0.12074
C          C       0.00839   0.83245   0.22798   0.08574
C          C       0.89896   0.81815   0.19665  -0.12397
C          C       0.83767   0.83549   0.11939  -0.12247
C          C       0.07143   0.81868   0.31183   0.05815
C          C       0.16680   0.87293   0.35838  -0.12336
C          C       0.22065   0.86621   0.44063  -0.03108
C          C       0.18314   0.80313   0.47704  -0.07474
C          C       0.09140   0.74548   0.43040  -0.03418
C          C       0.03570   0.75444   0.34885  -0.12200
C          C       0.31689   0.92817   0.49310   0.60943
C          C       0.05207   0.67359   0.46636   0.62647
C          C       0.13456   0.50689   0.77194   0.54882
C          C       0.14540   0.46196   0.84416  -0.00547
C          C       0.05836   0.43445   0.85875  -0.09259
C          C       0.07146   0.40143   0.93046  -0.13552
C          C       0.17190   0.39529   0.99019   0.07085
C          C       0.25846   0.41931   0.97264  -0.13013
C          C       0.24543   0.45113   0.90062  -0.09601
C          C       0.18700   0.36862   0.06933   0.06976
C          C       0.10883   0.37999   0.10126  -0.12419
C          C       0.12488   0.36160   0.17848  -0.12228
C          C       0.22079   0.33049   0.22801   0.08818
C          C       0.29820   0.31662   0.19554  -0.12359
C          C       0.28151   0.33472   0.11817  -0.12295
C          C       0.24168   0.31683   0.31215   0.05661
C          C       0.19320   0.37124   0.35915  -0.12173
C          C       0.22132   0.36515   0.44165  -0.02872
C          C       0.29481   0.30239   0.47807  -0.07658
C          C       0.33942   0.24443   0.43112  -0.03447
C          C       0.31381   0.25267   0.34924  -0.12251
C          C       0.17727   0.42770   0.49379   0.60954
C          C       0.41421   0.17286   0.46755   0.63063
C          C       0.36284   0.99486   0.22709   0.54367
C          C       0.30116   0.03858   0.15476  -0.00677
C          C       0.19984   0.06584   0.14126  -0.08908
C          C       0.14061   0.09841   0.06970  -0.13515
C          C       0.18084   0.10497   0.00934   0.07333
C          C       0.28439   0.08112   0.02566  -0.12930
C          C       0.34370   0.04896   0.09714  -0.09502
C          C       0.11709   0.13122   0.93036   0.06891
C          C       0.00748   0.11899   0.89947  -0.12349
C          C       0.94582   0.13625   0.82224  -0.11983
C          C       0.99176   0.16747   0.77209   0.08597
C          C       0.10116   0.18186   0.80334  -0.12289
C          C       0.16236   0.16462   0.88060  -0.12343
C          C       0.92874   0.18136   0.68837   0.05651
C          C       0.83337   0.12719   0.64193  -0.12072
C          C       0.77926   0.13448   0.55989  -0.03191
C          C       0.81661   0.19751   0.52350  -0.07450
C          C       0.90856   0.25467   0.56996  -0.03664
C          C       0.96444   0.24578   0.65144  -0.12014
C          C       0.68259   0.07356   0.50712   0.61183
C          C       0.94734   0.32559   0.53313   0.62809
O          O       0.95225   0.45879   0.26600  -0.60448
O          O       0.78958   0.49063   0.25028  -0.59408
O          O       0.54745   0.87516   0.57923  -0.63118
O          O       0.56751   0.83662   0.45898  -0.63715
O          O       0.76982   0.54768   0.43023  -0.56412
O          O       0.91519   0.54435   0.54019  -0.69676
O          O       0.68464   0.03875   0.73309  -0.61387
O          O       0.53893   0.00661   0.75182  -0.60740
O          O       0.96794   0.62468   0.41915  -0.63504
O          O       0.10557   0.66545   0.54054  -0.63516
O          O       0.33770   0.95293   0.56899  -0.56683
O          O       0.37701   0.95467   0.45974  -0.68431
O          O       0.04990   0.54434   0.73525  -0.61313
O          O       0.21030   0.50547   0.74875  -0.60480
O          O       0.45256   0.12525   0.42064  -0.63551
O          O       0.43296   0.16334   0.54119  -0.63758
O          O       0.23096   0.45252   0.56983  -0.56569
O          O       0.08522   0.45561   0.45989  -0.68716
O          O       0.31579   0.96087   0.26651  -0.60503
O          O       0.46118   0.99342   0.24796  -0.59575
O          O       0.03127   0.37537   0.57983  -0.63373
O          O       0.89419   0.33290   0.45888  -0.63570
O          O       0.66109   0.05150   0.43078  -0.56559
O          O       0.62317   0.04497   0.53992  -0.69421

