data_crystal

_audit_creation_method 'AiiDA-DDEC plugin'

_cell_length_a         8.58903
_cell_length_b        28.45610
_cell_length_c        28.45366

_cell_angle_alpha     119.01989
_cell_angle_beta     95.75118
_cell_angle_gamma     95.76643

_symmetry_space_group_name_Hall 'P 1'
_symmetry_space_group_name_H-M  'P 1'

loop_
_symmetry_equiv_pos_as_xyz
 'x,y,z'

loop_
_atom_site_label
_atom_site_type_symbol
_atom_site_fract_x
_atom_site_fract_y
_atom_site_fract_z
_atom_site_charge
K          K       0.65050   0.91391   0.32539   0.91736
K          K       0.32425   0.67371   0.58736   0.91679
K          K       0.73894   0.41134   0.08539   0.91697
K          K       0.82426   0.58731   0.67371   0.91676
K          K       0.23913   0.08530   0.41165   0.91703
K          K       0.15085   0.32508   0.91409   0.91794
Sm         Sm      0.02827   0.98303   0.47333   2.00568
Sm         Sm      0.55914   0.52561   0.50906   2.00776
Sm         Sm      0.04781   0.48997   0.01613   2.00584
Sm         Sm      0.05913   0.50904   0.52564   2.00749
Sm         Sm      0.54830   0.01636   0.49080   2.00746
Sm         Sm      0.52821   0.47316   0.98305   2.00504
H          H       0.92142   0.82799   0.24958   0.11570
H          H       0.27308   0.74076   0.27543   0.12639
H          H       0.41473   0.82686   0.35490   0.13417
H          H       0.84921   0.76177   0.17337   0.11636
H          H       0.70272   0.67442   0.09724   0.12466
H          H       0.10613   0.67254   0.23253   0.13049
H          H       0.67147   0.75017   0.57876   0.11644
H          H      -0.00323   0.72445   0.46549   0.12570
H          H       0.06062   0.64533   0.47248   0.13376
H          H       0.67635   0.82641   0.58892   0.11704
H          H       0.60620   0.90278   0.57805   0.12526
H          H       0.86976   0.76673   0.43955   0.13066
H          H       0.09355   0.42144   0.17195   0.11685
H          H       0.53207   0.53479   0.25904   0.12590
H          H       0.58761   0.52787   0.17275   0.13397
H          H       0.08819   0.41144   0.23768   0.11689
H          H       0.03054   0.42203   0.32503   0.12545
H          H       0.43210   0.56045   0.32727   0.13024
H          H       0.17157   0.57878   0.75026   0.11643
H          H       0.49689   0.46554   0.72449   0.12570
H          H       0.56062   0.47250   0.64535   0.13395
H          H       0.17646   0.58886   0.82660   0.11644
H          H       0.10638   0.57774   0.90288   0.12489
H          H       0.37001   0.43947   0.76657   0.13020
H          H       0.59324   0.17155   0.42125   0.11632
H          H       0.03184   0.25901   0.53458   0.12653
H          H       0.08791   0.17281   0.52779   0.13383
H          H       0.58794   0.23757   0.41138   0.11616
H          H       0.53050   0.32494   0.42197   0.12530
H          H       0.93188   0.32713   0.56039   0.13079
H          H       0.42074   0.24942   0.82788   0.11629
H          H       0.77262   0.27529   0.74070   0.12653
H          H       0.91421   0.35479   0.82682   0.13393
H          H       0.34877   0.17333   0.76181   0.11602
H          H       0.20220   0.09716   0.67448   0.12515
H          H       0.60582   0.23236   0.67254   0.13052
C          C       0.24725   0.87560   0.34828  -0.04995
C          C       0.10828   0.87504   0.31707  -0.08554
C          C       0.02721   0.82625   0.27258  -0.13832
C          C       0.08079   0.77647   0.25699   0.08735
C          C       0.22329   0.77779   0.28716  -0.11277
C          C       0.30462   0.82634   0.33185  -0.09075
C          C       0.33970   0.92511   0.39729   0.62072
C          C       0.99156   0.72503   0.20981   0.07987
C          C       0.87535   0.72396   0.17054  -0.12954
C          C       0.79395   0.67465   0.12681  -0.08822
C          C       0.82886   0.62420   0.11852  -0.03702
C          C       0.94672   0.62514   0.15757  -0.07920
C          C       0.02202   0.67458   0.20267  -0.13973
C          C       0.74084   0.57437   0.06769   0.62262
C          C       0.89942   0.65177   0.52779  -0.05319
C          C       0.79105   0.68279   0.55834  -0.08363
C          C       0.75466   0.72733   0.55409  -0.13984
C          C       0.82358   0.74292   0.51984   0.08932
C          C       0.93595   0.71280   0.49096  -0.11260
C          C       0.97330   0.66828   0.49501  -0.09057
C          C       0.94303   0.60265   0.52798   0.62466
C          C       0.78100   0.78996   0.51542   0.08062
C          C       0.70490   0.82931   0.55393  -0.12915
C          C       0.66720   0.87308   0.54850  -0.08865
C          C       0.71021   0.88136   0.50630  -0.03595
C          C       0.78739   0.84209   0.46764  -0.07999
C          C       0.81706   0.79685   0.47180  -0.13913
C          C       0.67267   0.93221   0.50766   0.61935
C          C       0.37172   0.47224   0.12413  -0.05087
C          C       0.23341   0.44159   0.12470  -0.08383
C          C       0.20112   0.44609   0.17356  -0.13923
C          C       0.30442   0.48047   0.22329   0.08658
C          C       0.44550   0.50936   0.22198  -0.11071
C          C       0.47825   0.50529   0.17335  -0.08993
C          C       0.41501   0.47148   0.07459   0.62338
C          C       0.26668   0.48483   0.27473   0.08076
C          C       0.15221   0.44631   0.27556  -0.12969
C          C       0.12082   0.45155   0.32478  -0.08828
C          C       0.20651   0.49363   0.37519  -0.03644
C          C       0.32181   0.53233   0.37454  -0.08072
C          C       0.34691   0.52831   0.32519  -0.13823
C          C       0.16868   0.49216   0.42469   0.61848
C          C       0.39943   0.52783   0.65180  -0.05334
C          C       0.29109   0.55838   0.68284  -0.08339
C          C       0.25470   0.55411   0.72739  -0.13972
C          C       0.32366   0.51987   0.74296   0.08923
C          C       0.43608   0.49101   0.71283  -0.11251
C          C       0.47334   0.49505   0.66830  -0.09090
C          C       0.44301   0.52800   0.60267   0.62447
C          C       0.28116   0.51537   0.78997   0.08065
C          C       0.20510   0.55383   0.82942  -0.12869
C          C       0.16740   0.54825   0.87312  -0.08854
C          C       0.21027   0.50592   0.88120  -0.03580
C          C       0.28759   0.46740   0.84190  -0.07905
C          C       0.31728   0.47168   0.79673  -0.13941
C          C       0.17209   0.50680   0.93180   0.61906
C          C       0.87160   0.12423   0.47255  -0.05139
C          C       0.73303   0.12456   0.44184  -0.08324
C          C       0.70073   0.17331   0.44603  -0.13893
C          C       0.80404   0.22311   0.48033   0.08724
C          C       0.94527   0.22194   0.50924  -0.11202
C          C       0.97832   0.17342   0.50533  -0.08941
C          C       0.91505   0.07485   0.47206   0.62325
C          C       0.76647   0.27458   0.48471   0.08005
C          C       0.65213   0.27547   0.44620  -0.12895
C          C       0.62083   0.32469   0.45148  -0.08784
C          C       0.70654   0.37510   0.49357  -0.03677
C          C       0.82186   0.37441   0.53224  -0.07947
C          C       0.84682   0.32504   0.52821  -0.13970
C          C       0.66871   0.42465   0.49218   0.61753
C          C       0.74651   0.34813   0.87546  -0.05228
C          C       0.60757   0.31695   0.87493  -0.08583
C          C       0.52649   0.27246   0.82615  -0.13800
C          C       0.58025   0.25688   0.77641   0.08687
C          C       0.72272   0.28705   0.77770  -0.11257
C          C       0.80400   0.33174   0.82624  -0.08872
C          C       0.83928   0.39697   0.92500   0.62284
C          C       0.49111   0.20969   0.72501   0.08053
C          C       0.37489   0.17044   0.72397  -0.12865
C          C       0.29338   0.12673   0.67467  -0.08989
C          C       0.32832   0.11846   0.62423  -0.03669
C          C       0.44610   0.15753   0.62515  -0.07946
C          C       0.52151   0.20256   0.67458  -0.14040
C          C       0.24061   0.06761   0.57444   0.62290
S          S       0.03468   0.93598   0.32883   1.19790
S          S       0.01631   0.56589   0.15367   1.18892
S          S       0.70323   0.67064   0.60705   1.19764
S          S       0.85939   0.84577   0.41190   1.18644
S          S       0.09913   0.39236   0.06375   1.19964
S          S       0.44949   0.58786   0.43387   1.19342
S          S       0.20326   0.60708   0.67070   1.19797
S          S       0.35941   0.41172   0.84568   1.18644
S          S       0.59937   0.06329   0.39275   1.20021
S          S       0.94939   0.43379   0.58782   1.19132
S          S       0.53452   0.32875   0.93595   1.19848
S          S       0.51621   0.15380   0.56605   1.19010
O          O       0.27319   0.96133   0.43303  -0.69038
O          O       0.49097   0.93043   0.40433  -0.64482
O          O       0.95618   0.95274   0.37882  -0.76110
O          O       0.91278   0.91933   0.28104  -0.61081
O          O       0.17190   0.97634   0.33810  -0.60833
O          O       0.59385   0.57154   0.05262  -0.59553
O          O       0.81279   0.53549   0.03798  -0.72117
O          O       0.87662   0.52362   0.13791  -0.63357
O          O       0.11661   0.55121   0.10871  -0.71689
O          O       0.11682   0.58361   0.20571  -0.53359
O          O       0.84155   0.56682   0.52853  -0.69331
O          O       0.08695   0.59548   0.52590  -0.64620
O          O       0.57766   0.61996   0.57332  -0.75963
O          O       0.62580   0.71792   0.63714  -0.61192
O          O       0.82966   0.66221   0.63934  -0.60715
O          O       0.54183   0.94757   0.52094  -0.59295
O          O       0.77278   0.96168   0.49758  -0.72554
O          O       0.73575   0.86207   0.38587  -0.63339
O          O       0.00523   0.89044   0.44208  -0.71610
O          O       0.90606   0.79344   0.37711  -0.53292
O          O       0.31265   0.47113   0.03832  -0.69416
O          O       0.56079   0.47287   0.06919  -0.64418
O          O       0.00651   0.42567   0.04642  -0.76270
O          O       0.99246   0.36199   0.08089  -0.61334
O          O       0.19513   0.36044   0.02346  -0.60834
O          O       0.02467   0.47854   0.42667  -0.59471
O          O       0.27905   0.50252   0.46423  -0.72281
O          O       0.35213   0.61417   0.47620  -0.63487
O          O       0.56423   0.55738   0.44821  -0.71866
O          O       0.53138   0.62248   0.41627  -0.53528
O          O       0.34155   0.52856   0.56685  -0.69326
O          O       0.58691   0.52589   0.59548  -0.64639
O          O       0.07765   0.57336   0.62004  -0.76012
O          O       0.12584   0.63717   0.71802  -0.61217
O          O       0.32963   0.63935   0.66226  -0.60693
O          O       0.03973   0.51888   0.94644  -0.59085
O          O       0.27304   0.49757   0.96176  -0.72520
O          O       0.23553   0.38581   0.86203  -0.63346
O          O       0.50507   0.44193   0.89044  -0.71589
O          O       0.40606   0.37685   0.79337  -0.53337
O          O       0.81285   0.03889   0.47224  -0.69333
O          O       0.06064   0.06921   0.47305  -0.64403
O          O       0.50704   0.04567   0.42593  -0.76237
O          O       0.49197   0.07996   0.36216  -0.61303
O          O       0.69646   0.02330   0.36113  -0.60823
O          O       0.52471   0.42666   0.47862  -0.59415
O          O       0.77913   0.46418   0.50253  -0.72250
O          O       0.85209   0.47614   0.61412  -0.63385
O          O       0.06412   0.44815   0.55734  -0.71833
O          O       0.03141   0.41622   0.62245  -0.53462
O          O       0.77324   0.43285   0.96127  -0.69013
O          O       0.99057   0.40369   0.93034  -0.64570
O          O       0.45600   0.37872   0.95274  -0.76167
O          O       0.41275   0.28098   0.91940  -0.61088
O          O       0.67197   0.33810   0.97628  -0.60881
O          O       0.09373   0.05243   0.57156  -0.59561
O          O       0.31279   0.03802   0.53557  -0.72164
O          O       0.37686   0.13785   0.52361  -0.63538
O          O       0.61675   0.10898   0.55166  -0.71686
O          O       0.61665   0.20588   0.58378  -0.53357

