data_crystal

_audit_creation_method 'AiiDA-DDEC plugin'

_cell_length_a        16.63895
_cell_length_b        16.98755
_cell_length_c        16.98763

_cell_angle_alpha     116.34639
_cell_angle_beta     103.46840
_cell_angle_gamma     103.46800

_symmetry_space_group_name_Hall 'P 1'
_symmetry_space_group_name_H-M  'P 1'

loop_
_symmetry_equiv_pos_as_xyz
 'x,y,z'

loop_
_atom_site_label
_atom_site_type_symbol
_atom_site_fract_x
_atom_site_fract_y
_atom_site_fract_z
_atom_site_charge
Mg         Mg      0.26875   0.59788   0.82129   1.61562
Mg         Mg      0.23126   0.17871   0.40212   1.61564
Mg         Mg      0.73126   0.40211   0.17870   1.61574
Mg         Mg      0.76874   0.82129   0.59788   1.61564
Cd         Cd      0.25000   0.36392   0.63608   1.00808
Cd         Cd      0.75000   0.63608   0.36392   1.00811
Cd         Cd      0.35814   0.78646   0.05952   1.03814
Cd         Cd      0.85814   0.05952   0.78646   1.03821
Cd         Cd      0.14186   0.94048   0.21355   1.03820
Cd         Cd      0.64186   0.21355   0.94048   1.03818
H          H       0.45090   0.32418   0.42707   0.12283
H          H       0.46493   0.34406   0.85676   0.11979
H          H       0.43186   0.58782   0.60724   0.12105
H          H       0.42571   0.60758   0.98732   0.11319
H          H       0.04910   0.57293   0.67581   0.12278
H          H       0.03508   0.14325   0.65594   0.11979
H          H       0.06815   0.39276   0.41217   0.12125
H          H       0.07429   0.01268   0.39242   0.11348
H          H       0.54910   0.67581   0.57293   0.12272
H          H       0.53508   0.65594   0.14325   0.11975
H          H       0.56815   0.41217   0.39276   0.12130
H          H       0.57429   0.39242   0.01268   0.11356
H          H       0.95091   0.42706   0.32418   0.12273
H          H       0.96493   0.85675   0.34406   0.11984
H          H       0.93185   0.60723   0.58782   0.12101
H          H       0.92572   0.98732   0.60758   0.11331
H          H       0.51323   0.01844   0.39940   0.12741
H          H       0.62432   0.07935   0.56232   0.12645
H          H       0.60331   0.78982   0.27986   0.12375
H          H       0.51280   0.66760   0.79128   0.13214
H          H       0.53414   0.95572   0.95979   0.11739
H          H       0.64733   0.01133   0.90233   0.12045
H          H       0.71406   0.85172   0.43983   0.10287
H          H       0.62762   0.72400   0.73500   0.12073
H          H       0.01323   0.39940   0.01844   0.12750
H          H       0.12432   0.56232   0.07934   0.12649
H          H       0.10331   0.27985   0.78983   0.12367
H          H       0.01279   0.79127   0.66760   0.13202
H          H       0.03414   0.95978   0.95572   0.11734
H          H       0.14733   0.90233   0.01133   0.12060
H          H       0.21406   0.43983   0.85172   0.10272
H          H       0.12762   0.73500   0.72401   0.12069
H          H       0.98678   0.60059   0.98156   0.12770
H          H       0.87568   0.43768   0.92066   0.12657
H          H       0.89670   0.72014   0.21018   0.12359
H          H       0.98720   0.20872   0.33239   0.13197
H          H       0.96587   0.04021   0.04429   0.11761
H          H       0.85267   0.09765   0.98866   0.12048
H          H       0.78595   0.56017   0.14828   0.10254
H          H       0.87237   0.26498   0.27597   0.12048
H          H       0.48678   0.98156   0.60060   0.12775
H          H       0.37569   0.92065   0.43768   0.12663
H          H       0.39670   0.21018   0.72014   0.12353
H          H       0.48720   0.33240   0.20873   0.13192
H          H       0.46586   0.04427   0.04022   0.11756
H          H       0.35267   0.98866   0.09766   0.12051
H          H       0.28595   0.14828   0.56017   0.10256
H          H       0.37237   0.27598   0.26499   0.12046
C          C       0.43481   0.45109   0.51905  -0.03139
C          C       0.47292   0.40082   0.45849  -0.09464
C          C       0.48012   0.41223   0.91932  -0.08125
C          C       0.46222   0.55024   0.56043  -0.09190
C          C       0.45855   0.56100   0.99308  -0.08302
C          C       0.43824   0.47307   0.91186  -0.03426
C          C       0.36673   0.40108   0.54257   0.61580
C          C       0.37175   0.44219   0.81770   0.59418
C          C       0.06519   0.48095   0.54890  -0.03148
C          C       0.02709   0.54150   0.59917  -0.09443
C          C       0.01989   0.08068   0.58777  -0.08161
C          C       0.03779   0.43957   0.44975  -0.09150
C          C       0.04146   0.00692   0.43900  -0.08310
C          C       0.06177   0.08814   0.52693  -0.03416
C          C       0.13327   0.45742   0.59892   0.61561
C          C       0.12826   0.18230   0.55781   0.59399
C          C       0.56519   0.54890   0.48095  -0.03151
C          C       0.52709   0.59917   0.54151  -0.09456
C          C       0.51989   0.58777   0.08068  -0.08151
C          C       0.53779   0.44975   0.43957  -0.09153
C          C       0.54146   0.43900   0.00693  -0.08306
C          C       0.56177   0.52693   0.08814  -0.03419
C          C       0.63327   0.59891   0.45742   0.61567
C          C       0.62826   0.55781   0.18230   0.59384
C          C       0.93481   0.51904   0.45109  -0.03168
C          C       0.97292   0.45849   0.40082  -0.09454
C          C       0.98012   0.91932   0.41223  -0.08142
C          C       0.96222   0.56042   0.55024  -0.09187
C          C       0.95855   0.99307   0.56100  -0.08303
C          C       0.93824   0.91186   0.47307  -0.03419
C          C       0.86673   0.54256   0.40107   0.61651
C          C       0.87175   0.81770   0.44219   0.59410
C          C       0.55728   0.98248   0.40938  -0.09608
C          C       0.61863   0.01632   0.49966  -0.09059
C          C       0.55111   0.90028   0.33007  -0.02236
C          C       0.60769   0.85312   0.34127  -0.08242
C          C       0.73776   0.00330   0.60810   0.59655
C          C       0.54250   0.74236   0.81467  -0.09411
C          C       0.51525   0.80802   0.87719  -0.00519
C          C       0.70644   0.90185   0.77397   0.60540
C          C       0.67415   0.96810   0.51110  -0.03437
C          C       0.55419   0.90532   0.90997  -0.08981
C          C       0.44448   0.77258   0.90734   0.61357
C          C       0.48396   0.86199   0.23406   0.54159
C          C       0.61691   0.93634   0.87769  -0.08400
C          C       0.66917   0.88721   0.43144  -0.09634
C          C       0.60596   0.77357   0.78339  -0.09716
C          C       0.64189   0.87022   0.81270  -0.00654
C          C       0.05728   0.40937   0.98249  -0.09576
C          C       0.11863   0.49966   0.01632  -0.09084
C          C       0.05111   0.33007   0.90028  -0.02231
C          C       0.10769   0.34127   0.85313  -0.08247
C          C       0.23775   0.60810   0.00330   0.59668
C          C       0.04250   0.81466   0.74236  -0.09413
C          C       0.01525   0.87718   0.80803  -0.00534
C          C       0.20645   0.77398   0.90185   0.60543
C          C       0.17415   0.51109   0.96810  -0.03430
C          C       0.05419   0.90996   0.90532  -0.08975
C          C       0.94449   0.90734   0.77258   0.61350
C          C       0.98397   0.23406   0.86200   0.54170
C          C       0.11691   0.87768   0.93634  -0.08382
C          C       0.16917   0.43144   0.88721  -0.09631
C          C       0.10596   0.78338   0.77357  -0.09735
C          C       0.14189   0.81270   0.87022  -0.00640
C          C       0.94273   0.59062   0.01752  -0.09587
C          C       0.88138   0.50034   0.98368  -0.09062
C          C       0.94890   0.66993   0.09972  -0.02223
C          C       0.89232   0.65873   0.14688  -0.08265
C          C       0.76225   0.39190   0.99670   0.59647
C          C       0.95750   0.18533   0.25763  -0.09397
C          C       0.98475   0.12281   0.19197  -0.00503
C          C       0.79356   0.22603   0.09814   0.60577
C          C       0.82586   0.48890   0.03190  -0.03428
C          C       0.94581   0.09003   0.09468  -0.08977
C          C       0.05552   0.09266   0.22742   0.61318
C          C       0.01604   0.76594   0.13801   0.54154
C          C       0.88309   0.12230   0.06365  -0.08384
C          C       0.83084   0.56856   0.11279  -0.09638
C          C       0.89404   0.21660   0.22642  -0.09763
C          C       0.85811   0.18730   0.12977  -0.00638
C          C       0.44273   0.01751   0.59062  -0.09570
C          C       0.38138   0.98367   0.50034  -0.09078
C          C       0.44889   0.09972   0.66993  -0.02229
C          C       0.39232   0.14687   0.65873  -0.08254
C          C       0.26225   0.99670   0.39190   0.59655
C          C       0.45750   0.25763   0.18533  -0.09401
C          C       0.48475   0.19197   0.12281  -0.00525
C          C       0.29355   0.09814   0.22602   0.60561
C          C       0.32586   0.03190   0.48891  -0.03435
C          C       0.44581   0.09467   0.09003  -0.08962
C          C       0.55551   0.22742   0.09266   0.61337
C          C       0.51604   0.13799   0.76594   0.54141
C          C       0.38309   0.06365   0.12231  -0.08388
C          C       0.33084   0.11279   0.56856  -0.09640
C          C       0.39404   0.22642   0.21661  -0.09740
C          C       0.35811   0.12977   0.18730  -0.00648
O          O       0.35382   0.45441   0.61566  -0.49900
O          O       0.35832   0.36234   0.74628  -0.48976
O          O       0.32754   0.49231   0.80766  -0.67709
O          O       0.32576   0.31049   0.49247  -0.71600
O          O       0.14619   0.38433   0.54559  -0.49875
O          O       0.14169   0.25373   0.63766  -0.49000
O          O       0.17247   0.19234   0.50769  -0.67660
O          O       0.17425   0.50753   0.68951  -0.71592
O          O       0.64618   0.54558   0.38433  -0.49874
O          O       0.64167   0.63766   0.25373  -0.49012
O          O       0.67248   0.50770   0.19234  -0.67637
O          O       0.67425   0.68950   0.50753  -0.71604
O          O       0.85381   0.61565   0.45440  -0.49925
O          O       0.85832   0.74627   0.36234  -0.48983
O          O       0.82754   0.80766   0.49231  -0.67689
O          O       0.82575   0.49245   0.31048  -0.71637
O          O       0.44919   0.82851   0.99036  -0.51850
O          O       0.43077   0.90280   0.22210  -0.48999
O          O       0.77779   0.94915   0.61904  -0.75131
O          O       0.70672   0.84103   0.69628  -0.67282
O          O       0.75357   0.08309   0.67808  -0.47058
O          O       0.75757   0.99066   0.82555  -0.50109
O          O       0.38566   0.68862   0.84829  -0.69555
O          O       0.47900   0.78646   0.16239  -0.47638
O          O       0.94921   0.99037   0.82852  -0.51842
O          O       0.93076   0.22210   0.90279  -0.48990
O          O       0.27779   0.61904   0.94915  -0.75145
O          O       0.20673   0.69628   0.84104  -0.67288
O          O       0.25356   0.67808   0.08309  -0.47053
O          O       0.25758   0.82557   0.99066  -0.50094
O          O       0.88566   0.84830   0.68863  -0.69551
O          O       0.97902   0.16238   0.78648  -0.47653
O          O       0.05082   0.00964   0.17148  -0.51826
O          O       0.06925   0.77790   0.09721  -0.48947
O          O       0.72221   0.38096   0.05084  -0.75157
O          O       0.79330   0.30373   0.15895  -0.67336
O          O       0.74645   0.32192   0.91691  -0.47024
O          O       0.74243   0.17444   0.00933  -0.50097
O          O       0.11434   0.15170   0.31138  -0.69537
O          O       0.02100   0.83761   0.21354  -0.47682
O          O       0.55080   0.17147   0.00963  -0.51824
O          O       0.56925   0.09720   0.77790  -0.48926
O          O       0.22221   0.05085   0.38096  -0.75167
O          O       0.29328   0.15895   0.30372  -0.67320
O          O       0.24645   0.91691   0.32192  -0.47021
O          O       0.24242   0.00933   0.17443  -0.50098
O          O       0.61434   0.31137   0.15168  -0.69551
O          O       0.52098   0.21351   0.83762  -0.47693

