data_crystal

_audit_creation_method 'AiiDA-DDEC plugin'

_cell_length_a         9.85452
_cell_length_b        11.39086
_cell_length_c        26.14676

_cell_angle_alpha     81.95914
_cell_angle_beta     79.05461
_cell_angle_gamma     64.33331

_symmetry_space_group_name_Hall 'P 1'
_symmetry_space_group_name_H-M  'P 1'

loop_
_symmetry_equiv_pos_as_xyz
 'x,y,z'

loop_
_atom_site_label
_atom_site_type_symbol
_atom_site_fract_x
_atom_site_fract_y
_atom_site_fract_z
_atom_site_charge
Co         Co      0.58254   0.89832   0.82557   0.78238
Co         Co      0.69379   0.39873   0.32489   0.78163
Co         Co      0.30622   0.60126   0.67512   0.78152
Co         Co      0.41747   0.10167   0.17444   0.78226
H          H       0.12189   0.26039   0.82618   0.11369
H          H       0.09500   0.89326   0.83259   0.11558
H          H       0.69458   0.24757   0.81687   0.10836
H          H       0.89611   0.68901   0.78163   0.10560
H          H       0.02849   0.44828   0.78414   0.11963
H          H       0.59309   0.43818   0.84473   0.11253
H          H       0.47997   0.67925   0.83946   0.10733
H          H       0.61543   0.03203   0.55643   0.10267
H          H       0.64475   0.77428   0.71735   0.09498
H          H       0.65367   0.85112   0.62421   0.12392
H          H       0.51053   0.24094   0.67234   0.13781
H          H       0.51658   0.14423   0.76373   0.09428
H          H       0.58617   0.28764   0.59464   0.12794
H          H       0.72541   0.47558   0.42912   0.09800
H          H       0.68577   0.41064   0.52411   0.13021
H          H       0.53432   0.13769   0.48223   0.11420
H          H       0.57803   0.21557   0.38979   0.08869
H          H       0.79121   0.76069   0.32617   0.11348
H          H       0.17895   0.39354   0.33250   0.11612
H          H       0.24082   0.74772   0.31692   0.10811
H          H       0.63332   0.18946   0.28161   0.10534
H          H       0.73878   0.94875   0.28424   0.11915
H          H       0.12369   0.93802   0.34479   0.11343
H          H       0.00126   0.17919   0.33938   0.10688
H          H       0.79614   0.53210   0.05627   0.10294
H          H       0.86382   0.27437   0.21707   0.09375
H          H       0.87112   0.35131   0.12389   0.12469
H          H       0.57625   0.74109   0.17218   0.13752
H          H       0.57530   0.64424   0.26360   0.09334
H          H       0.53141   0.78767   0.09476   0.12705
H          H       0.37016   0.97555   0.92938   0.09863
H          H       0.37930   0.91045   0.02438   0.13030
H          H       0.84593   0.63734   0.98235   0.11375
H          H       0.81723   0.71532   0.88990   0.08921
H          H       0.20880   0.23930   0.67383   0.11375
H          H       0.82106   0.60645   0.66751   0.11568
H          H       0.75919   0.25227   0.68308   0.10816
H          H       0.36669   0.81053   0.71840   0.10561
H          H       0.26123   0.05124   0.71576   0.11914
H          H       0.87632   0.06197   0.65521   0.11301
H          H      -0.00125   0.82080   0.66062   0.10698
H          H       0.20387   0.46789   0.94373   0.10291
H          H       0.13619   0.72562   0.78293   0.09348
H          H       0.12888   0.64868   0.87611   0.12467
H          H       0.42375   0.25890   0.82782   0.13774
H          H       0.42471   0.35575   0.73641   0.09338
H          H       0.46860   0.21232   0.90524   0.12713
H          H       0.62984   0.02444   0.07063   0.09888
H          H       0.62071   0.08954   0.97562   0.13029
H          H       0.15407   0.36265   0.01765   0.11351
H          H       0.18277   0.28467   0.11011   0.08912
H          H       0.87812   0.73960   0.17382   0.11366
H          H       0.90500   0.10673   0.16741   0.11542
H          H       0.30542   0.75242   0.18313   0.10861
H          H       0.10389   0.31098   0.21837   0.10574
H          H       0.97152   0.55171   0.21586   0.11957
H          H       0.40692   0.56181   0.15527   0.11232
H          H       0.52004   0.32074   0.16054   0.10733
H          H       0.38458   0.96796   0.44357   0.10267
H          H       0.35525   0.22571   0.28266   0.09463
H          H       0.34633   0.14887   0.37579   0.12387
H          H       0.48948   0.75904   0.32766   0.13807
H          H       0.48343   0.85576   0.23627   0.09429
H          H       0.41383   0.71235   0.40537   0.12802
H          H       0.27460   0.52441   0.57089   0.09826
H          H       0.31423   0.58935   0.47590   0.13019
H          H       0.46569   0.86229   0.51778   0.11402
H          H       0.42198   0.78442   0.61021   0.08874
C          C       0.89764   0.27450   0.82050   0.05253
C          C       0.05271   0.20798   0.82540  -0.13134
C          C       0.12309   0.07150   0.82998  -0.03041
C          C       0.03920  -0.00077   0.82974  -0.10302
C          C       0.88417   0.06367   0.82564  -0.02804
C          C       0.81459   0.20035   0.82101  -0.13255
C          C       0.83376   0.62933   0.79560   0.07750
C          C       0.90689   0.49390   0.79756  -0.17852
C          C       0.82376   0.41874   0.81585   0.10951
C          C       0.66618   0.48836   0.83023  -0.17864
C          C       0.60109   0.62373   0.82773   0.08514
C          C       0.59786   0.10128   0.58458  -0.13363
C          C       0.62012   0.87626   0.70597   0.09314
C          C       0.62317   0.92079   0.65358  -0.18624
C          C       0.58817   0.05356   0.63916   0.13756
C          C       0.54589   0.13625   0.68023  -0.18932
C          C       0.54680   0.08389   0.73125   0.08236
C          C       0.59528   0.22012   0.56697  -0.11976
C          C       0.28902   0.00446   0.83313   0.53075
C          C       0.68568   0.39956   0.44271   0.09056
C          C       0.66291   0.36299   0.49556  -0.18314
C          C       0.61197   0.26379   0.51198   0.13528
C          C       0.58007   0.21080   0.47254  -0.18584
C          C       0.60413   0.25354   0.42076   0.07648
C          C       0.79297   0.98730   0.82587   0.54324
C          C       0.00713   0.77470   0.32061   0.05199
C          C       0.91369   0.70826   0.32529  -0.13145
C          C       0.97558   0.57178   0.32953  -0.03113
C          C       0.13192   0.49948   0.32965  -0.10448
C          C       0.22639   0.56384   0.32596  -0.02760
C          C       0.16385   0.70050   0.32122  -0.13172
C          C       0.74135   0.12960   0.29555   0.07745
C          C       0.80148   0.99419   0.29760  -0.17856
C          C       0.94138   0.91891   0.31592   0.11036
C          C       0.01505   0.98837   0.33024  -0.18079
C          C       0.94743   0.12375   0.32766   0.08633
C          C       0.71640   0.60131   0.08450  -0.13349
C          C       0.79761   0.37627   0.20569   0.09420
C          C       0.80262   0.42086   0.15333  -0.18579
C          C       0.71925   0.55363   0.13901   0.13611
C          C       0.63763   0.63639   0.18007  -0.18724
C          C       0.63771   0.58395   0.23106   0.08202
C          C       0.61756   0.72019   0.06704  -0.11909
C          C       0.87462   0.50417   0.33199   0.53309
C          C       0.47232   0.89961   0.94297   0.08993
C          C       0.47853   0.86294   0.99578  -0.18345
C          C       0.61229   0.76378   0.01212   0.13545
C          C       0.73685   0.71060   0.97266  -0.18535
C          C       0.72213   0.75341   0.92092   0.07602
C          C       0.39380   0.48780   0.32624   0.54247
C          C       0.99288   0.22529   0.67940   0.05192
C          C       0.08631   0.29173   0.67472  -0.13129
C          C       0.02443   0.42821   0.67047  -0.03132
C          C       0.86809   0.50051   0.67036  -0.10429
C          C       0.77362   0.43615   0.67404  -0.02776
C          C       0.83615   0.29949   0.67878  -0.13168
C          C       0.25866   0.87039   0.70445   0.07749
C          C       0.19853   0.00580   0.70241  -0.17855
C          C       0.05863   0.08107   0.68409   0.11019
C          C       0.98496   0.01162   0.66976  -0.18055
C          C       0.05258   0.87624   0.67234   0.08601
C          C       0.28361   0.39867   0.91550  -0.13371
C          C       0.20240   0.62371   0.79431   0.09414
C          C       0.19739   0.57913   0.84667  -0.18591
C          C       0.28076   0.44636   0.86099   0.13629
C          C       0.36238   0.36360   0.81993  -0.18721
C          C       0.36230   0.41603   0.76894   0.08217
C          C       0.38245   0.27979   0.93296  -0.11888
C          C       0.12538   0.49581   0.66801   0.53302
C          C       0.52769   0.10037   0.05703   0.09007
C          C       0.52147   0.13705   0.00422  -0.18340
C          C       0.38772   0.23621   0.98789   0.13537
C          C       0.26316   0.28939   0.02734  -0.18542
C          C       0.27787   0.24658   0.07909   0.07584
C          C       0.60621   0.51219   0.67377   0.54262
C          C       0.10236   0.72549   0.17950   0.05233
C          C       0.94730   0.79201   0.17461  -0.13118
C          C       0.87692   0.92849   0.17002  -0.03051
C          C       0.96081   0.00076   0.17026  -0.10316
C          C       0.11584   0.93632   0.17436  -0.02820
C          C       0.18542   0.79964   0.17899  -0.13245
C          C       0.16625   0.37066   0.20441   0.07747
C          C       0.09312   0.50609   0.20244  -0.17878
C          C       0.17625   0.58125   0.18415   0.10963
C          C       0.33383   0.51163   0.16977  -0.17865
C          C       0.39892   0.37626   0.17227   0.08541
C          C       0.40214   0.89871   0.41542  -0.13381
C          C       0.37989   0.12373   0.29403   0.09284
C          C       0.37684   0.07919   0.34642  -0.18612
C          C       0.41183   0.94643   0.36084   0.13767
C          C       0.45412   0.86374   0.31977  -0.18900
C          C       0.45321   0.91610   0.26875   0.08226
C          C       0.40473   0.77987   0.43303  -0.11974
C          C       0.71099   0.99553   0.16687   0.53100
C          C       0.31433   0.60043   0.55730   0.09029
C          C       0.33710   0.63700   0.50445  -0.18315
C          C       0.38804   0.73620   0.48802   0.13522
C          C       0.41993   0.78919   0.52747  -0.18584
C          C       0.39588   0.74645   0.57925   0.07655
C          C       0.20704   0.01269   0.17413   0.54362
N          N       0.68282   0.69517   0.81137  -0.24620
N          N       0.58445   0.95549   0.74500  -0.24583
N          N       0.65841   0.34561   0.40513  -0.23864
N          N       0.81073   0.19528   0.31127  -0.24552
N          N       0.71462   0.45550   0.24471  -0.24560
N          N       0.59146   0.84580   0.90537  -0.23872
N          N       0.18927   0.80471   0.68874  -0.24509
N          N       0.28539   0.54449   0.75530  -0.24583
N          N       0.40854   0.15419   0.09463  -0.23842
N          N       0.31719   0.30482   0.18863  -0.24593
N          N       0.41556   0.04450   0.25501  -0.24587
N          N       0.34160   0.65438   0.59488  -0.23843
O          O       0.36130   0.07211   0.83646  -0.53031
O          O       0.35947   0.88084   0.83109  -0.54615
O          O       0.64754   0.04862   0.83421  -0.54047
O          O       0.85799   0.86666   0.81809  -0.56253
O          O       0.73109   0.57137   0.33513  -0.53181
O          O       0.93122   0.38060   0.32972  -0.54784
O          O       0.46816   0.54877   0.33591  -0.53993
O          O       0.45896   0.36810   0.31687  -0.56225
O          O       0.26892   0.42861   0.66488  -0.53136
O          O       0.06879   0.61938   0.67028  -0.54826
O          O       0.53185   0.45122   0.66410  -0.53983
O          O       0.54105   0.63189   0.68313  -0.56256
O          O       0.63870   0.92787   0.16354  -0.53019
O          O       0.64054   0.11915   0.16891  -0.54658
O          O       0.35247   0.95137   0.16580  -0.54033
O          O       0.14201   0.13333   0.18192  -0.56299

