data_crystal

_audit_creation_method 'AiiDA-DDEC plugin'

_cell_length_a        16.34357
_cell_length_b        12.71336
_cell_length_c        12.74028

_cell_angle_alpha     90.34235
_cell_angle_beta     89.96582
_cell_angle_gamma     90.09601

_symmetry_space_group_name_Hall 'P 1'
_symmetry_space_group_name_H-M  'P 1'

loop_
_symmetry_equiv_pos_as_xyz
 'x,y,z'

loop_
_atom_site_label
_atom_site_type_symbol
_atom_site_fract_x
_atom_site_fract_y
_atom_site_fract_z
_atom_site_charge
Cu         Cu      0.49914   0.80134   0.80107   0.29639
Cu         Cu      0.00009   0.19840   0.19863   0.29500
Cu         Cu      0.24942   0.69719   0.30360   0.30122
Cu         Cu      0.75000   0.30333   0.69653   0.29827
H          H       0.59547   0.97756   0.74064   0.07651
H          H       0.74233   0.01095   0.69998   0.11732
H          H       0.77070   0.67491   0.65555   0.12244
H          H       0.62327   0.65597   0.69814   0.08326
H          H       0.23672   0.87424   0.45660   0.08816
H          H       0.10971   0.95188   0.52852   0.12138
H          H       0.00200   0.64081   0.52068   0.11968
H          H       0.13463   0.57451   0.45171   0.08603
H          H       0.09731   0.02281   0.25557   0.07603
H          H       0.24383   0.98820   0.29666   0.11676
H          H       0.27446   0.32373   0.34189   0.12207
H          H       0.12758   0.34426   0.29827   0.08353
H          H       0.73925   0.12580   0.54198   0.08845
H          H       0.61375   0.04678   0.46691   0.12174
H          H       0.50356   0.35580   0.47601   0.11895
H          H       0.63434   0.42353   0.54973   0.08536
H          H       0.34756   0.75644   0.47823   0.07675
H          H       0.49498   0.79424   0.51069   0.11613
H          H       0.52326   0.83490   0.17539   0.12270
H          H       0.37548   0.79476   0.15713   0.08274
H          H       0.98844   0.04170   0.37493   0.08871
H          H       0.86363   0.96239   0.45060   0.11965
H          H       0.75439   0.97343   0.14191   0.11866
H          H       0.88442   0.05176   0.07740   0.08609
H          H       0.84835   0.24310   0.52231   0.07609
H          H       0.99559   0.20401   0.49049   0.11643
H          H       0.02245   0.16201   0.82564   0.12238
H          H       0.87486   0.20330   0.84359   0.08252
H          H       0.48664   0.95298   0.62492   0.08829
H          H       0.36166   0.02986   0.54758   0.12074
H          H       0.25270   0.02444   0.85710   0.11911
H          H       0.38336   0.95004   0.92307   0.08528
H          H       0.15052   0.52391   0.24268   0.07577
H          H       0.00317   0.49345   0.20355   0.11666
H          H       0.97847   0.82961   0.16184   0.12128
H          H       0.12639   0.84588   0.20304   0.08218
H          H       0.51142   0.62552   0.95808   0.08918
H          H       0.63663   0.55090   0.03676   0.12115
H          H       0.74597   0.86041   0.02033   0.11980
H          H       0.61503   0.92403   0.94448   0.08474
H          H       0.65227   0.47765   0.75710   0.07643
H          H       0.50534   0.51036   0.79721   0.11635
H          H       0.47718   0.17422   0.83916   0.12206
H          H       0.62464   0.15592   0.79713   0.08333
H          H       0.01201   0.37452   0.04417   0.08788
H          H       0.13809   0.45134   0.96927   0.12056
H          H       0.24548   0.14067   0.97553   0.11949
H          H       0.11402   0.07514   0.04784   0.08617
H          H       0.40319   0.74343   0.97664   0.07618
H          H       0.25633   0.70370   0.01186   0.11720
H          H       0.22487   0.65888   0.67724   0.12275
H          H       0.37237   0.70025   0.65606   0.08330
H          H       0.76141   0.45582   0.87372   0.08795
H          H       0.88733   0.52977   0.95265   0.12250
H          H       0.99580   0.52782   0.64267   0.11851
H          H       0.86439   0.45512   0.57524   0.08589
H          H       0.90225   0.25952   0.02342   0.07735
H          H       0.75557   0.30094   0.99199   0.11741
H          H       0.72865   0.34375   0.32761   0.12220
H          H       0.87604   0.30109   0.34489   0.08346
H          H       0.26062   0.54021   0.12694   0.08914
H          H       0.38746   0.46692   0.05066   0.12063
H          H       0.49479   0.47880   0.36091   0.11946
H          H       0.36245   0.54996   0.42588   0.08573
C          C       0.63664   0.91302   0.72163   0.05498
C          C       0.71796   0.93126   0.70004  -0.15488
C          C       0.76929   0.84562   0.67385   0.03734
C          C       0.73441   0.74417   0.67435  -0.15238
C          C       0.65203   0.73320   0.69810   0.07332
C          C       0.85190   0.86778   0.64345   0.26664
C          C       0.97343   0.84866   0.57945   0.26304
C          C       0.18403   0.82439   0.47320   0.05402
C          C       0.11337   0.86788   0.51356  -0.16318
C          C       0.04505   0.80239   0.53406   0.02473
C          C       0.05303   0.69445   0.50948  -0.17556
C          C       0.12687   0.65757   0.47056   0.07109
C          C       0.13888   0.08704   0.27471   0.05527
C          C       0.22000   0.06807   0.29656  -0.15522
C          C       0.27192   0.15317   0.32325   0.03726
C          C       0.23771   0.25486   0.32261  -0.15254
C          C       0.15551   0.26661   0.29845   0.07357
C          C       0.35450   0.13050   0.35308   0.26625
C          C       0.47643   0.14898   0.41606   0.26503
C          C       0.68628   0.17487   0.52521   0.05522
C          C       0.61644   0.13066   0.48291  -0.16259
C          C       0.54789   0.19529   0.46216   0.02552
C          C       0.55488   0.30304   0.48798  -0.17531
C          C       0.62777   0.34067   0.52920   0.07127
C          C       0.38885   0.77422   0.41361   0.05344
C          C       0.47051   0.79429   0.43128  -0.15267
C          C       0.52205   0.81896   0.34554   0.03509
C          C       0.48680   0.81755   0.24463  -0.15250
C          C       0.40411   0.79536   0.23421   0.07380
C          C       0.60502   0.84855   0.36687   0.26633
C          C       0.72697   0.91171   0.34786   0.26291
C          C       0.93580   0.02482   0.32509   0.05419
C          C       0.86640   0.98006   0.36748  -0.16229
C          C       0.79822   0.95862   0.30217   0.02704
C          C       0.80526   0.98604   0.19535  -0.17444
C          C       0.87772   0.02986   0.15946   0.06985
C          C       0.88911   0.22485   0.58722   0.05428
C          C       0.97060   0.20403   0.56967  -0.15355
C          C       0.02170   0.17887   0.65540   0.03707
C          C       0.98635   0.17966   0.75628  -0.15300
C          C       0.90377   0.20268   0.76666   0.07511
C          C       0.10449   0.14912   0.63351   0.26388
C          C       0.22575   0.08451   0.65147   0.26243
C          C       0.43412   0.97126   0.67447   0.05345
C          C       0.36466   0.01462   0.63121  -0.16266
C          C       0.29676   0.03733   0.69668   0.02541
C          C       0.30373   0.01176   0.80391  -0.17579
C          C       0.37640   0.96980   0.84053   0.07204
C          C       0.11007   0.58924   0.22450   0.05672
C          C       0.02846   0.57264   0.20369  -0.15399
C          C       0.97790   0.65914   0.17862   0.03701
C          C       0.01413   0.75977   0.17953  -0.15204
C          C       0.09679   0.76916   0.20255   0.07253
C          C       0.89492   0.63785   0.14898   0.26508
C          C       0.77332   0.65566   0.08515   0.26420
C          C       0.56407   0.67581   0.97410   0.05376
C          C       0.63374   0.63403   0.01832  -0.16146
C          C       0.70198   0.70012   0.03802   0.02472
C          C       0.69485   0.80676   0.00949  -0.17447
C          C       0.62198   0.84205   0.96687   0.07099
C          C       0.61120   0.41292   0.77574   0.05470
C          C       0.52980   0.43078   0.79696  -0.15311
C          C       0.47835   0.34504   0.82241   0.03473
C          C       0.51343   0.24371   0.82112  -0.15264
C          C       0.59596   0.23314   0.79783   0.07251
C          C       0.39577   0.36719   0.85300   0.26682
C          C       0.27422   0.34791   0.91703   0.26213
C          C       0.06454   0.32462   0.02688   0.05430
C          C       0.13466   0.36758   0.98456  -0.16344
C          C       0.20258   0.30191   0.96255   0.02657
C          C       0.19470   0.19438   0.98768  -0.17550
C          C       0.12145   0.15800   0.02866   0.07093
C          C       0.36139   0.72411   0.91287   0.05665
C          C       0.28010   0.70318   0.93207  -0.15362
C          C       0.22806   0.67689   0.84725   0.03551
C          C       0.26213   0.67729   0.74566  -0.15359
C          C       0.34457   0.70027   0.73367   0.07325
C          C       0.14546   0.64681   0.86967   0.26572
C          C       0.02376   0.58322   0.85064   0.26377
C          C       0.81413   0.47370   0.82449   0.05560
C          C       0.88411   0.51544   0.86867  -0.16406
C          C       0.95234   0.53770   0.80386   0.02467
C          C       0.94485   0.51437   0.69579  -0.17348
C          C       0.87171   0.47354   0.65830   0.06974
C          C       0.86156   0.27832   0.08849   0.05409
C          C       0.78021   0.30033   0.07128  -0.15433
C          C       0.72910   0.32625   0.15722   0.03802
C          C       0.76458   0.32510   0.25806  -0.15286
C          C       0.84705   0.30127   0.26802   0.07261
C          C       0.64621   0.35565   0.13552   0.26568
C          C       0.52410   0.41814   0.15426   0.26237
C          C       0.31327   0.52451   0.17693   0.05333
C          C       0.38392   0.48322   0.13426  -0.16194
C          C       0.45213   0.46355   0.19987   0.02509
C          C       0.44389   0.48952   0.30725  -0.17382
C          C       0.37013   0.52945   0.34336   0.06900
N          N       0.60209   0.81534   0.72136  -0.23780
N          N       0.88896   0.96027   0.64972  -0.23857
N          N       0.96598   0.94809   0.60943  -0.23641
N          N       0.19279   0.71988   0.45074  -0.26818
N          N       0.10488   0.18491   0.27517  -0.23502
N          N       0.39066   0.03746   0.34788  -0.23682
N          N       0.46795   0.04928   0.38752  -0.23667
N          N       0.69387   0.27914   0.54959  -0.26661
N          N       0.35391   0.77432   0.31648  -0.23786
N          N       0.64100   0.84651   0.45993  -0.23656
N          N       0.71816   0.88629   0.44783  -0.23532
N          N       0.94337   0.05099   0.22179  -0.26430
N          N       0.85403   0.22488   0.68434  -0.23773
N          N       0.14073   0.15302   0.54062  -0.23789
N          N       0.21754   0.11231   0.55210  -0.23504
N          N       0.44200   0.94810   0.77839  -0.26547
N          N       0.14590   0.68613   0.22466  -0.23919
N          N       0.85850   0.54485   0.15347  -0.23685
N          N       0.78155   0.55621   0.11332  -0.23703
N          N       0.55626   0.77911   0.94740  -0.26563
N          N       0.64605   0.31552   0.77571  -0.23768
N          N       0.35991   0.46054   0.85172  -0.23758
N          N       0.28300   0.44825   0.89216  -0.23601
N          N       0.05593   0.22046   0.04985  -0.26774
N          N       0.39532   0.72302   0.81510  -0.23742
N          N       0.10909   0.65143   0.96243  -0.23635
N          N       0.03191   0.61133   0.95033  -0.23653
N          N       0.80599   0.45152   0.72006  -0.26796
N          N       0.89675   0.27827   0.18554  -0.23693
N          N       0.61042   0.35258   0.04225  -0.23774
N          N       0.53316   0.39196   0.05419  -0.23523
N          N       0.30450   0.54884   0.28083  -0.26751
O          O       0.90232   0.79214   0.59868  -0.18434
O          O       0.40590   0.20627   0.39608  -0.18515
O          O       0.65681   0.88897   0.29060  -0.18508
O          O       0.15543   0.10611   0.70896  -0.18249
O          O       0.84377   0.71350   0.10619  -0.18454
O          O       0.34427   0.29069   0.89384  -0.18434
O          O       0.09442   0.60370   0.79374  -0.18421
O          O       0.59432   0.39658   0.21171  -0.18442

