data_crystal

_audit_creation_method 'AiiDA-DDEC plugin'

_cell_length_a        13.46428
_cell_length_b        13.84273
_cell_length_c        16.26482

_cell_angle_alpha     108.45114
_cell_angle_beta     90.05190
_cell_angle_gamma     119.06099

_symmetry_space_group_name_Hall 'P 1'
_symmetry_space_group_name_H-M  'P 1'

loop_
_symmetry_equiv_pos_as_xyz
 'x,y,z'

loop_
_atom_site_label
_atom_site_type_symbol
_atom_site_fract_x
_atom_site_fract_y
_atom_site_fract_z
_atom_site_charge
Mn         Mn      0.97029   0.41365   0.86781   0.90276
Mn         Mn      0.55634   0.58633   0.63207   0.90276
Mn         Mn      0.02971   0.58634   0.13219   0.90277
Mn         Mn      0.44366   0.41367   0.36793   0.90275
H          H       0.02685   0.38298   0.31260   0.13428
H          H       0.00507   0.23732   0.27836   0.12689
H          H       0.89893   0.26147   0.23982   0.11517
H          H       0.79282   0.33355   0.44935   0.11640
H          H       0.90216   0.43799   0.41117   0.12581
H          H       0.77695   0.31383   0.33577   0.12259
H          H       0.74476   0.10821   0.29166   0.12114
H          H       0.84835   0.08219   0.33281   0.12736
H          H       0.76251   0.12024   0.40362   0.11195
H          H       0.19810   0.40816   0.67207   0.11950
H          H       0.13668   0.34870   0.39724   0.11367
H          H       0.85713   0.28094   0.54298   0.10120
H          H       0.22188   0.49751   0.84437   0.09958
H          H       0.40353   0.67199   0.84213   0.14144
H          H       0.23668   0.87762   0.93092   0.11966
H          H       0.06146   0.69215   0.92689   0.09138
H          H       0.42716   0.97835   0.90883   0.09599
H          H       0.55088   0.83794   0.84326   0.12291
H          H       0.70787   0.30070   0.86691   0.09649
H          H       0.53689   0.11459   0.86588   0.11363
H          H       0.76036   0.96998   0.85609   0.13211
H          H       0.92340   0.16563   0.85915   0.10494
H          H       0.64409   0.61694   0.18742   0.13486
H          H       0.76789   0.76249   0.22163   0.12788
H          H       0.63778   0.73854   0.26015   0.11490
H          H       0.45929   0.66653   0.05056   0.11676
H          H       0.46429   0.56206   0.08881   0.12613
H          H       0.46329   0.68625   0.16411   0.12269
H          H       0.63665   0.89186   0.20822   0.12125
H          H       0.76615   0.91773   0.16708   0.12727
H          H       0.64225   0.87974   0.09621   0.11184
H          H       0.78971   0.59210   0.82786   0.11844
H          H       0.78799   0.65111   0.10272   0.11347
H          H       0.57597   0.71914   0.95694   0.10108
H          H       0.72426   0.50253   0.65561   0.09922
H          H       0.73145   0.32799   0.65803   0.14097
H          H       0.35894   0.12266   0.56901   0.11988
H          H       0.36926   0.30820   0.57282   0.09106
H          H       0.44890   0.02184   0.59127   0.09648
H          H       0.71275   0.16209   0.65676   0.12179
H          H       0.40749   0.69951   0.63312   0.09701
H          H       0.42236   0.88557   0.63411   0.11414
H          H       0.79036   0.03004   0.64393   0.13217
H          H       0.75796   0.83436   0.64096   0.10495
H          H       0.97315   0.61702   0.68740   0.13425
H          H       0.99493   0.76267   0.72164   0.12680
H          H       0.10107   0.73853   0.76018   0.11515
H          H       0.20718   0.66645   0.55065   0.11649
H          H       0.09784   0.56201   0.58882   0.12587
H          H       0.22305   0.68617   0.66422   0.12252
H          H       0.25524   0.89179   0.70833   0.12111
H          H       0.15165   0.91781   0.66718   0.12729
H          H       0.23749   0.87976   0.59638   0.11207
H          H       0.80190   0.59184   0.32793   0.11956
H          H       0.86332   0.65130   0.60275   0.11360
H          H       0.14288   0.71906   0.45701   0.10133
H          H       0.77812   0.50249   0.15563   0.09945
H          H       0.59647   0.32801   0.15787   0.14133
H          H       0.76332   0.12238   0.06907   0.11970
H          H       0.93855   0.30785   0.07311   0.09141
H          H       0.57284   0.02165   0.09117   0.09606
H          H       0.44912   0.16206   0.15674   0.12289
H          H       0.29213   0.69930   0.13309   0.09655
H          H       0.46311   0.88541   0.13412   0.11374
H          H       0.23964   0.03002   0.14390   0.13202
H          H       0.07660   0.83437   0.14085   0.10491
H          H       0.35591   0.38306   0.81258   0.13485
H          H       0.23211   0.23751   0.77837   0.12785
H          H       0.36222   0.26146   0.73984   0.11499
H          H       0.54071   0.33347   0.94943   0.11669
H          H       0.53571   0.43794   0.91119   0.12606
H          H       0.53671   0.31374   0.83588   0.12279
H          H       0.36336   0.10814   0.79178   0.12141
H          H       0.23386   0.08227   0.83292   0.12724
H          H       0.35775   0.12026   0.90379   0.11181
H          H       0.21030   0.40790   0.17214   0.11832
H          H       0.21201   0.34889   0.89727   0.11356
H          H       0.42403   0.28085   0.04306   0.10117
H          H       0.27574   0.49747   0.34439   0.09914
H          H       0.26855   0.67201   0.34197   0.14096
H          H       0.64106   0.87734   0.43099   0.11994
H          H       0.63074   0.69180   0.42718   0.09110
H          H       0.55110   0.97816   0.40872   0.09645
H          H       0.28725   0.83790   0.34324   0.12177
H          H       0.59251   0.30049   0.36688   0.09696
H          H       0.57764   0.11443   0.36589   0.11422
H          H       0.20964   0.96996   0.35607   0.13214
H          H       0.24204   0.16564   0.35904   0.10492
C          C       0.96202   0.28899   0.29739  -0.42875
C          C       0.83958   0.34322   0.39449  -0.42875
C          C       0.80865   0.13732   0.34945  -0.43520
C          C       0.02141   0.33962   0.61447  -0.03545
C          C       0.13862   0.37952   0.61265  -0.12200
C          C       0.17889   0.38405   0.53417  -0.04232
C          C       0.10190   0.34609   0.45723  -0.15238
C          C       0.98500   0.30876   0.45805   0.05743
C          C       0.94661   0.30702   0.53812  -0.14463
C          C       0.97978   0.34130   0.69981   0.54356
C          C       0.30433   0.43044   0.53153   0.58252
C          C       0.90030   0.27033   0.37539   0.25171
C          C       0.22969   0.58396   0.86364   0.09342
C          C       0.33092   0.68228   0.86256  -0.18052
C          C       0.33647   0.79227   0.88683   0.13863
C          C       0.23729   0.79509   0.91111  -0.19126
C          C       0.13920   0.69199   0.90936   0.09154
C          C       0.43695   0.90087   0.88699  -0.12576
C          C       0.53785   0.91355   0.86338  -0.12601
C          C       0.71538   0.22549   0.86584   0.08633
C          C       0.62083   0.12143   0.86607  -0.18336
C          C       0.63385   0.02555   0.86358   0.14113
C          C       0.74521   0.04168   0.86006  -0.18903
C          C       0.83593   0.14944   0.86086   0.08780
C          C       0.67320   0.71093   0.20258  -0.43061
C          C       0.49646   0.65682   0.10543  -0.43000
C          C       0.67133   0.86267   0.15045  -0.43497
C          C       0.68151   0.66038   0.88551  -0.03527
C          C       0.75896   0.62059   0.88732  -0.12079
C          C       0.79492   0.61605   0.96580  -0.04176
C          C       0.75579   0.65377   0.04270  -0.15247
C          C       0.67620   0.69117   0.04189   0.05796
C          C       0.63942   0.69302   0.96183  -0.14464
C          C       0.63814   0.65856   0.80010   0.54109
C          C       0.87451   0.57018   0.96849   0.58143
C          C       0.63004   0.72964   0.12456   0.25200
C          C       0.64561   0.41613   0.63635   0.09259
C          C       0.64856   0.31782   0.63756  -0.17861
C          C       0.54408   0.20792   0.61325   0.13756
C          C       0.44209   0.20514   0.58886  -0.18917
C          C       0.44709   0.30826   0.59049   0.09062
C          C       0.53599   0.09932   0.61309  -0.12671
C          C       0.62426   0.08653   0.63669  -0.12545
C          C       0.49014   0.77469   0.63419   0.08649
C          C       0.49948   0.87872   0.63397  -0.18372
C          C       0.60832   0.97453   0.63648   0.14133
C          C       0.70358   0.95838   0.64000  -0.18935
C          C       0.68670   0.85062   0.63919   0.08822
C          C       0.03798   0.71101   0.70261  -0.42879
C          C       0.16043   0.65678   0.60551  -0.42875
C          C       0.19135   0.86267   0.65055  -0.43527
C          C       0.97859   0.66038   0.38552  -0.03554
C          C       0.86139   0.62048   0.38734  -0.12196
C          C       0.82111   0.61594   0.46583  -0.04229
C          C       0.89810   0.65391   0.54277  -0.15245
C          C       0.01500   0.69124   0.54194   0.05744
C          C       0.05339   0.69298   0.46188  -0.14464
C          C       0.02022   0.65870   0.30019   0.54361
C          C       0.69567   0.56956   0.46847   0.58235
C          C       0.09970   0.72967   0.62461   0.25176
C          C       0.77032   0.41604   0.13636   0.09346
C          C       0.66908   0.31771   0.13744  -0.18050
C          C       0.66353   0.20773   0.11317   0.13858
C          C       0.76271   0.20491   0.08888  -0.19118
C          C       0.86081   0.30801   0.09063   0.09158
C          C       0.56305   0.09913   0.11300  -0.12575
C          C       0.46215   0.08645   0.13662  -0.12610
C          C       0.28462   0.77451   0.13415   0.08625
C          C       0.37917   0.87857   0.13392  -0.18339
C          C       0.36616   0.97445   0.13642   0.14122
C          C       0.25479   0.95832   0.13994  -0.18897
C          C       0.16408   0.85056   0.13913   0.08757
C          C       0.32680   0.28907   0.79742  -0.43057
C          C       0.50354   0.34318   0.89457  -0.42988
C          C       0.32867   0.13733   0.84954  -0.43496
C          C       0.31849   0.33962   0.11449  -0.03527
C          C       0.24104   0.37941   0.11268  -0.12084
C          C       0.20508   0.38394   0.03419  -0.04170
C          C       0.24421   0.34623   0.95730  -0.15246
C          C       0.32380   0.30883   0.95811   0.05792
C          C       0.36058   0.30698   0.03817  -0.14466
C          C       0.36186   0.34144   0.19989   0.54120
C          C       0.12549   0.42982   0.03151   0.58136
C          C       0.36996   0.27036   0.87544   0.25186
C          C       0.35439   0.58387   0.36365   0.09269
C          C       0.35144   0.68218   0.36244  -0.17864
C          C       0.45592   0.79208   0.38675   0.13750
C          C       0.55791   0.79486   0.41113  -0.18928
C          C       0.55291   0.69174   0.40951   0.09067
C          C       0.46401   0.90068   0.38691  -0.12659
C          C       0.37574   0.91347   0.36331  -0.12548
C          C       0.50986   0.22531   0.36581   0.08667
C          C       0.50052   0.12128   0.36603  -0.18377
C          C       0.39168   0.02546   0.36352   0.14136
C          C       0.29642   0.04162   0.36000  -0.18938
C          C       0.31330   0.14937   0.36081   0.08822
N          N       0.13388   0.58683   0.88607  -0.24681
N          N       0.82212   0.24057   0.86348  -0.23796
N          N       0.54698   0.41333   0.61379  -0.24593
N          N       0.58178   0.75957   0.63656  -0.23922
N          N       0.86612   0.41317   0.11392  -0.24674
N          N       0.17788   0.75943   0.13652  -0.23775
N          N       0.45302   0.58667   0.38621  -0.24593
N          N       0.41822   0.24043   0.36343  -0.23934
O          O       0.03905   0.33892   0.76039  -0.56807
O          O       0.89134   0.35141   0.71261  -0.56448
O          O       0.33068   0.39091   0.45838  -0.57768
O          O       0.37614   0.50509   0.60359  -0.55048
O          O       0.69998   0.66167   0.73975  -0.56656
O          O       0.53924   0.64764   0.78711  -0.56359
O          O       0.94029   0.60970   0.04177  -0.57743
O          O       0.87240   0.49609   0.89648  -0.55012
O          O       0.96095   0.66108   0.23961  -0.56809
O          O       0.10866   0.64859   0.28738  -0.56442
O          O       0.66932   0.60909   0.54162  -0.57783
O          O       0.62386   0.49491   0.39641  -0.55023
O          O       0.30003   0.33833   0.26025  -0.56677
O          O       0.46076   0.35236   0.21289  -0.56349
O          O       0.05971   0.39030   0.95823  -0.57734
O          O       0.12760   0.50391   0.10352  -0.55020

