data_crystal

_audit_creation_method 'AiiDA-DDEC plugin'

_cell_length_a         8.53197
_cell_length_b        17.50225
_cell_length_c        17.50225

_cell_angle_alpha     89.99771
_cell_angle_beta     90.00137
_cell_angle_gamma     90.00229

_symmetry_space_group_name_Hall 'P 1'
_symmetry_space_group_name_H-M  'P 1'

loop_
_symmetry_equiv_pos_as_xyz
 'x,y,z'

loop_
_atom_site_label
_atom_site_type_symbol
_atom_site_fract_x
_atom_site_fract_y
_atom_site_fract_z
_atom_site_charge
Eu         Eu      0.15031   0.96434   0.10846   1.87611
Eu         Eu      0.15039   0.03565   0.89157   1.87626
Eu         Eu      0.84965   0.10840   0.03564   1.87572
Eu         Eu      0.84954   0.89157   0.96435   1.87549
Eu         Eu      0.34958   0.53561   0.60839   1.87602
Eu         Eu      0.34970   0.46435   0.39158   1.87595
Eu         Eu      0.65046   0.39156   0.53566   1.87574
Eu         Eu      0.65040   0.60845   0.46438   1.87604
H          H       0.43156   0.24249   0.24362   0.13523
H          H       0.68170   0.17006   0.44466   0.12177
H          H       0.75144   0.04680   0.38036   0.11630
H          H       0.65394   0.02086   0.24839   0.13244
H          H       0.19888   0.11627   0.04014   0.40758
H          H       0.43154   0.75754   0.75641   0.13527
H          H       0.68164   0.82990   0.55533   0.12184
H          H       0.75147   0.95317   0.61960   0.11607
H          H       0.65395   0.97915   0.75157   0.13258
H          H       0.19895   0.88373   0.95990   0.40771
H          H       0.56844   0.24357   0.75754   0.13527
H          H       0.31832   0.44463   0.82993   0.12154
H          H       0.24858   0.38035   0.95319   0.11615
H          H       0.34607   0.24839   0.97917   0.13262
H          H       0.80117   0.04012   0.88373   0.40776
H          H       0.56846   0.75642   0.24247   0.13524
H          H       0.31837   0.55534   0.17008   0.12172
H          H       0.24856   0.61962   0.04684   0.11607
H          H       0.34607   0.75159   0.02085   0.13253
H          H       0.80109   0.95994   0.11629   0.40776
H          H       0.06842   0.25757   0.74358   0.13534
H          H       0.81834   0.32993   0.94466   0.12166
H          H       0.74855   0.45320   0.88039   0.11607
H          H       0.84604   0.47919   0.74842   0.13267
H          H       0.30100   0.38378   0.54013   0.40752
H          H       0.06844   0.74246   0.25642   0.13537
H          H       0.81834   0.67005   0.05533   0.12178
H          H       0.74855   0.54681   0.11962   0.11614
H          H       0.84604   0.52085   0.25158   0.13249
H          H       0.30108   0.61628   0.45987   0.40750
H          H       0.93156   0.25644   0.25757   0.13542
H          H       0.18164   0.05534   0.32993   0.12169
H          H       0.25149   0.11960   0.45318   0.11617
H          H       0.15399   0.25156   0.47918   0.13273
H          H       0.69891   0.45998   0.38370   0.40780
H          H       0.93151   0.74362   0.74248   0.13520
H          H       0.18170   0.94466   0.67007   0.12189
H          H       0.25144   0.88036   0.54683   0.11620
H          H       0.15390   0.74840   0.52085   0.13263
H          H       0.69900   0.54008   0.61628   0.40753
C          C       0.53858   0.13068   0.23932  -0.08954
C          C       0.49972   0.19974   0.27416  -0.10057
C          C       0.55066   0.21289   0.34928  -0.03797
C          C       0.51039   0.28538   0.39014   0.61359
C          C       0.64137   0.15773   0.38706  -0.08183
C          C       0.67987   0.08902   0.35105  -0.08774
C          C       0.62713   0.07455   0.27703  -0.06744
C          C       0.53866   0.86933   0.76067  -0.08945
C          C       0.49969   0.80027   0.72585  -0.10075
C          C       0.55059   0.78711   0.65073  -0.03788
C          C       0.51032   0.71462   0.60989   0.61398
C          C       0.64136   0.84224   0.61293  -0.08193
C          C       0.67992   0.91096   0.64893  -0.08709
C          C       0.62721   0.92544   0.72295  -0.06802
C          C       0.46144   0.23930   0.86935  -0.08994
C          C       0.50032   0.27412   0.80028  -0.10057
C          C       0.44938   0.34924   0.78712  -0.03763
C          C       0.48967   0.39011   0.71463   0.61408
C          C       0.35864   0.38703   0.84226  -0.08193
C          C       0.32012   0.35102   0.91098  -0.08746
C          C       0.37288   0.27701   0.92547  -0.06779
C          C       0.46144   0.76068   0.13067  -0.08960
C          C       0.50037   0.72585   0.19972  -0.10048
C          C       0.44945   0.65073   0.21288  -0.03798
C          C       0.48962   0.60988   0.28539   0.61416
C          C       0.35867   0.61294   0.15775  -0.08189
C          C       0.32013   0.64895   0.08904  -0.08726
C          C       0.37287   0.72297   0.07455  -0.06787
C          C       0.96137   0.36936   0.73933  -0.08967
C          C       0.00027   0.30029   0.77415  -0.10064
C          C       0.94934   0.28713   0.84926  -0.03761
C          C       0.98956   0.21462   0.89012   0.61346
C          C       0.85860   0.34227   0.88705  -0.08192
C          C       0.82009   0.41099   0.85106  -0.08759
C          C       0.87281   0.42548   0.77704  -0.06753
C          C       0.96140   0.63066   0.26067  -0.08937
C          C       0.00032   0.69973   0.22584  -0.10075
C          C       0.94938   0.71287   0.15072  -0.03776
C          C       0.98942   0.78539   0.10986   0.61289
C          C       0.85866   0.65772   0.11292  -0.08205
C          C       0.82011   0.58902   0.14894  -0.08758
C          C       0.87284   0.57455   0.22296  -0.06747
C          C       0.03862   0.26067   0.36936  -0.08971
C          C      -0.00032   0.22586   0.30030  -0.10100
C          C       0.05061   0.15074   0.28714  -0.03743
C          C       0.01053   0.10990   0.21462   0.61351
C          C       0.14135   0.11293   0.34228  -0.08184
C          C       0.17991   0.14893   0.41099  -0.08752
C          C       0.12718   0.22295   0.42548  -0.06763
C          C       0.03857   0.73931   0.63067  -0.08949
C          C      -0.00035   0.77415   0.69972  -0.10053
C          C       0.05056   0.84928   0.71289  -0.03773
C          C       0.01031   0.89013   0.78539   0.61400
C          C       0.14133   0.88707   0.65775  -0.08236
C          C       0.17985   0.85105   0.58904  -0.08729
C          C       0.12713   0.77703   0.57455  -0.06785
S          S       0.47450   0.11027   0.14509   1.22457
S          S       0.47444   0.88986   0.85484   1.22555
S          S       0.52552   0.14508   0.88975   1.22537
S          S       0.52547   0.85491   0.11022   1.22521
S          S       0.02557   0.38984   0.64515   1.22526
S          S       0.02549   0.61019   0.35488   1.22476
S          S       0.97449   0.35487   0.38984   1.22524
S          S       0.97456   0.64507   0.61021   1.22474
O          O       0.35633   0.04857   0.15544  -0.67244
O          O       0.61661   0.07955   0.10604  -0.68158
O          O       0.41085   0.17960   0.10990  -0.54678
O          O       0.45125   0.34053   0.35227  -0.60836
O          O       0.53892   0.28794   0.46181  -0.60291
O          O       0.12557   0.07579   0.02605  -1.05023
O          O       0.35638   0.95160   0.84441  -0.67302
O          O       0.61653   0.92051   0.89394  -0.68149
O          O       0.41061   0.82063   0.89012  -0.54719
O          O       0.45095   0.65948   0.64770  -0.60872
O          O       0.53907   0.71205   0.53824  -0.60318
O          O       0.12554   0.92419   0.97389  -1.05004
O          O       0.64366   0.15545   0.95147  -0.67267
O          O       0.38339   0.10604   0.92043  -0.68180
O          O       0.58926   0.10989   0.82045  -0.54672
O          O       0.54895   0.35227   0.65950  -0.60853
O          O       0.46104   0.46177   0.71205  -0.60296
O          O       0.87449   0.02607   0.92421  -1.05066
O          O       0.64365   0.84454   0.04851  -0.67268
O          O       0.38333   0.89394   0.07955  -0.68189
O          O       0.58922   0.89012   0.17951  -0.54693
O          O       0.54887   0.64771   0.34053  -0.60874
O          O       0.46095   0.53822   0.28796  -0.60318
O          O       0.87457   0.97391   0.07585  -1.05044
O          O       0.14367   0.45157   0.65558  -0.67279
O          O       0.88349   0.42050   0.60606  -0.68166
O          O       0.08946   0.32064   0.60987  -0.54700
O          O       0.04870   0.15946   0.85226  -0.60810
O          O       0.96102   0.21205   0.96178  -0.60313
O          O       0.37449   0.42421   0.52611  -1.05033
O          O       0.14362   0.54848   0.34450  -0.67240
O          O       0.88335   0.57954   0.39394  -0.68143
O          O       0.08929   0.67945   0.39011  -0.54705
O          O       0.04848   0.84057   0.14772  -0.60813
O          O       0.96092   0.78794   0.03819  -0.60249
O          O       0.37449   0.57583   0.47390  -1.05028
O          O       0.85641   0.34445   0.45159  -0.67294
O          O       0.11663   0.39395   0.42045  -0.68137
O          O       0.91054   0.39013   0.32063  -0.54704
O          O       0.95144   0.14774   0.15943  -0.60831
O          O       0.03906   0.03823   0.21208  -0.60315
O          O       0.62553   0.47391   0.42420  -1.05039
O          O       0.85639   0.65542   0.54850  -0.67275
O          O       0.11668   0.60603   0.57950  -0.68119
O          O       0.91093   0.60988   0.67954  -0.54696
O          O       0.95100   0.85229   0.84051  -0.60864
O          O       0.03903   0.96178   0.78796  -0.60330
O          O       0.62558   0.52607   0.57582  -1.05007

