data_crystal

_audit_creation_method 'AiiDA-DDEC plugin'

_cell_length_a        14.37500
_cell_length_b        15.82248
_cell_length_c        15.82266

_cell_angle_alpha     120.00283
_cell_angle_beta     90.00000
_cell_angle_gamma     90.00000

_symmetry_space_group_name_Hall 'P 1'
_symmetry_space_group_name_H-M  'P 1'

loop_
_symmetry_equiv_pos_as_xyz
 'x,y,z'

loop_
_atom_site_label
_atom_site_type_symbol
_atom_site_fract_x
_atom_site_fract_y
_atom_site_fract_z
_atom_site_charge
La         La      0.75016   0.66669   0.33331   1.80493
La         La      0.75016   0.33331   0.66669   1.80484
La         La      0.24984   0.33331   0.66669   1.80485
La         La      0.24984   0.66669   0.33331   1.80492
Mg         Mg      0.00000   0.00000   0.50000   1.57041
Mg         Mg      0.00000   0.50000   0.00000   1.57034
Mg         Mg      0.00000   0.50000   0.50000   1.57085
Mg         Mg      0.50000   0.00000   0.50000   1.57086
Mg         Mg      0.50000   0.50000   0.50000   1.57065
Mg         Mg      0.50000   0.50000   0.00000   1.57101
H          H       0.85154   0.95892   0.71326   0.12879
H          H       0.85151   0.75428   0.04117   0.12873
H          H       0.85142   0.28682   0.24563   0.12851
H          H       0.85154   0.04108   0.28673   0.12876
H          H       0.85151   0.24573   0.95883   0.12861
H          H       0.85142   0.71318   0.75437   0.12867
H          H       0.64860   0.04136   0.75437   0.12855
H          H       0.64870   0.24553   0.28691   0.12838
H          H       0.64857   0.71318   0.95873   0.12842
H          H       0.64860   0.95865   0.24563   0.12862
H          H       0.64870   0.75447   0.71309   0.12826
H          H       0.64857   0.28682   0.04127   0.12846
H          H       0.14846   0.04108   0.28673   0.12875
H          H       0.14849   0.24573   0.95883   0.12860
H          H       0.14858   0.71318   0.75437   0.12866
H          H       0.14846   0.95892   0.71326   0.12880
H          H       0.14849   0.75428   0.04117   0.12873
H          H       0.14858   0.28682   0.24563   0.12850
H          H       0.35140   0.95865   0.24563   0.12863
H          H       0.35130   0.75447   0.71309   0.12826
H          H       0.35143   0.28682   0.04127   0.12849
H          H       0.35140   0.04136   0.75437   0.12855
H          H       0.35130   0.24553   0.28691   0.12838
H          H       0.35143   0.71318   0.95873   0.12846
H          H       0.75019   0.90432   0.80865   0.09524
H          H       0.75012   0.90430   0.09579   0.09496
H          H       0.75005   0.19134   0.09560   0.09531
H          H       0.75019   0.09569   0.19134   0.09533
H          H       0.75012   0.09570   0.90421   0.09473
H          H       0.75005   0.80866   0.90439   0.09545
H          H       0.24981   0.09569   0.19134   0.09534
H          H       0.24988   0.09570   0.90421   0.09475
H          H       0.24995   0.80866   0.90439   0.09544
H          H       0.24981   0.90432   0.80865   0.09524
H          H       0.24988   0.90430   0.09579   0.09495
H          H       0.24995   0.19134   0.09560   0.09531
C          C       0.80650   0.89541   0.67779  -0.12542
C          C       0.80347   0.84304   0.57584   0.13047
C          C       0.86027   0.87147   0.51366   0.57754
C          C       0.80647   0.78237   0.10469  -0.12380
C          C       0.80346   0.73282   0.15707   0.12489
C          C       0.86028   0.64221   0.12860   0.58008
C          C       0.80640   0.32227   0.21755  -0.12381
C          C       0.80341   0.42422   0.26712   0.12492
C          C       0.86025   0.48642   0.35775   0.58081
C          C       0.80650   0.10459   0.32220  -0.12550
C          C       0.80347   0.15696   0.42416   0.13039
C          C       0.86027   0.12853   0.48634   0.57782
C          C       0.80647   0.21763   0.89531  -0.12529
C          C       0.80346   0.26719   0.84292   0.12940
C          C       0.86028   0.35779   0.87139   0.57880
C          C       0.80640   0.67774   0.78245  -0.12362
C          C       0.80341   0.57578   0.73288   0.12491
C          C       0.86025   0.51358   0.64225   0.58046
C          C       0.69366   0.10486   0.78250  -0.12385
C          C       0.69663   0.15727   0.73296   0.12536
C          C       0.63976   0.12883   0.64233   0.57989
C          C       0.69374   0.21742   0.32230  -0.12380
C          C       0.69667   0.26697   0.42427   0.12566
C          C       0.63978   0.35762   0.48651   0.57934
C          C       0.69364   0.67776   0.89523  -0.12372
C          C       0.69662   0.57579   0.84285   0.12505
C          C       0.63976   0.51356   0.87124   0.58027
C          C       0.69366   0.89514   0.21750  -0.12370
C          C       0.69663   0.84273   0.26704   0.12552
C          C       0.63976   0.87117   0.35767   0.57981
C          C       0.69374   0.78258   0.67769  -0.12391
C          C       0.69667   0.73303   0.57573   0.12572
C          C       0.63978   0.64239   0.51349   0.57926
C          C       0.69364   0.32225   0.10476  -0.12375
C          C       0.69662   0.42421   0.15715   0.12516
C          C       0.63976   0.48644   0.12876   0.58001
C          C       0.19350   0.10459   0.32220  -0.12548
C          C       0.19653   0.15696   0.42416   0.13037
C          C       0.13973   0.12853   0.48634   0.57784
C          C       0.19353   0.21763   0.89531  -0.12530
C          C       0.19654   0.26719   0.84292   0.12940
C          C       0.13972   0.35779   0.87139   0.57880
C          C       0.19360   0.67774   0.78245  -0.12363
C          C       0.19659   0.57578   0.73288   0.12487
C          C       0.13975   0.51358   0.64225   0.58050
C          C       0.19350   0.89541   0.67779  -0.12544
C          C       0.19653   0.84304   0.57584   0.13049
C          C       0.13973   0.87147   0.51366   0.57754
C          C       0.19353   0.78237   0.10469  -0.12382
C          C       0.19654   0.73282   0.15707   0.12488
C          C       0.13972   0.64221   0.12860   0.58013
C          C       0.19360   0.32227   0.21755  -0.12381
C          C       0.19659   0.42422   0.26712   0.12494
C          C       0.13975   0.48642   0.35775   0.58079
C          C       0.30634   0.89514   0.21750  -0.12373
C          C       0.30337   0.84273   0.26704   0.12553
C          C       0.36024   0.87117   0.35767   0.57980
C          C       0.30626   0.78258   0.67769  -0.12391
C          C       0.30333   0.73303   0.57573   0.12572
C          C       0.36022   0.64239   0.51349   0.57925
C          C       0.30636   0.32225   0.10476  -0.12379
C          C       0.30338   0.42421   0.15715   0.12517
C          C       0.36024   0.48644   0.12876   0.58003
C          C       0.30634   0.10486   0.78250  -0.12385
C          C       0.30337   0.15727   0.73296   0.12538
C          C       0.36024   0.12883   0.64233   0.57980
C          C       0.30626   0.21742   0.32230  -0.12380
C          C       0.30333   0.26697   0.42427   0.12567
C          C       0.36022   0.35762   0.48651   0.57935
C          C       0.30636   0.67776   0.89523  -0.12378
C          C       0.30338   0.57579   0.84285   0.12507
C          C       0.36024   0.51356   0.87124   0.58023
C          C       0.75008   0.86469   0.72915  -0.05293
C          C       0.75003   0.86442   0.13540  -0.05229
C          C       0.74999   0.27085   0.13548  -0.05256
C          C       0.75008   0.13531   0.27085  -0.05288
C          C       0.75003   0.13558   0.86460  -0.05235
C          C       0.74999   0.72915   0.86451  -0.05269
C          C       0.24992   0.13531   0.27085  -0.05290
C          C       0.24997   0.13558   0.86460  -0.05235
C          C       0.25001   0.72915   0.86451  -0.05265
C          C       0.24992   0.86469   0.72915  -0.05293
C          C       0.24997   0.86442   0.13540  -0.05225
C          C       0.25001   0.27085   0.13548  -0.05253
N          N       0.75008   0.76358   0.52682  -0.30430
N          N       0.75005   0.76328   0.23652  -0.30247
N          N       0.75002   0.47318   0.23661  -0.30196
N          N       0.75008   0.23642   0.47317  -0.30430
N          N       0.75005   0.23672   0.76348  -0.30351
N          N       0.75002   0.52682   0.76339  -0.30204
N          N       0.24992   0.23642   0.47317  -0.30431
N          N       0.24995   0.23672   0.76348  -0.30351
N          N       0.24998   0.52682   0.76339  -0.30203
N          N       0.24992   0.76358   0.52682  -0.30430
N          N       0.24995   0.76328   0.23652  -0.30247
N          N       0.24998   0.47318   0.23661  -0.30197
O          O       0.90369   0.95214   0.55951  -0.66948
O          O       0.86115   0.81362   0.42214  -0.60345
O          O       0.90372   0.60742   0.04795  -0.66984
O          O       0.86113   0.60853   0.18643  -0.60377
O          O       0.90369   0.44062   0.39258  -0.67032
O          O       0.86113   0.57795   0.39142  -0.60423
O          O       0.90369   0.04786   0.44049  -0.66960
O          O       0.86115   0.18638   0.57786  -0.60374
O          O       0.90372   0.39259   0.95205  -0.67016
O          O       0.86113   0.39148   0.81357  -0.60362
O          O       0.90369   0.55938   0.60742  -0.66991
O          O       0.86113   0.42205   0.60857  -0.60423
O          O       0.59638   0.04812   0.60746  -0.67031
O          O       0.63891   0.18662   0.60860  -0.60303
O          O       0.59640   0.39252   0.44072  -0.66962
O          O       0.63890   0.39134   0.57804  -0.60320
O          O       0.59640   0.55939   0.95195  -0.67040
O          O       0.63890   0.42203   0.81343  -0.60375
O          O       0.59638   0.95188   0.39253  -0.67004
O          O       0.63891   0.81339   0.39139  -0.60335
O          O       0.59640   0.60749   0.55928  -0.66986
O          O       0.63890   0.60866   0.42195  -0.60301
O          O       0.59640   0.44061   0.04805  -0.67019
O          O       0.63890   0.57797   0.18657  -0.60356
O          O       0.09631   0.04786   0.44049  -0.66961
O          O       0.13885   0.18638   0.57786  -0.60376
O          O       0.09628   0.39259   0.95205  -0.67017
O          O       0.13887   0.39148   0.81357  -0.60362
O          O       0.09631   0.55938   0.60742  -0.66994
O          O       0.13887   0.42205   0.60857  -0.60424
O          O       0.09631   0.95214   0.55951  -0.66948
O          O       0.13885   0.81362   0.42214  -0.60346
O          O       0.09628   0.60742   0.04795  -0.66985
O          O       0.13887   0.60853   0.18643  -0.60382
O          O       0.09631   0.44062   0.39258  -0.67033
O          O       0.13887   0.57795   0.39142  -0.60423
O          O       0.40362   0.95188   0.39253  -0.67003
O          O       0.36109   0.81339   0.39139  -0.60335
O          O       0.40360   0.60749   0.55928  -0.66985
O          O       0.36110   0.60866   0.42195  -0.60300
O          O       0.40360   0.44061   0.04805  -0.67020
O          O       0.36110   0.57797   0.18657  -0.60356
O          O       0.40362   0.04812   0.60746  -0.67026
O          O       0.36109   0.18662   0.60860  -0.60300
O          O       0.40360   0.39252   0.44072  -0.66963
O          O       0.36110   0.39134   0.57804  -0.60320
O          O       0.40360   0.55939   0.95195  -0.67038
O          O       0.36110   0.42203   0.81343  -0.60372

