data_crystal

_audit_creation_method 'AiiDA-DDEC plugin'

_cell_length_a        10.93681
_cell_length_b        14.02623
_cell_length_c        21.95619

_cell_angle_alpha     87.59089
_cell_angle_beta     86.66877
_cell_angle_gamma     88.09535

_symmetry_space_group_name_Hall 'P 1'
_symmetry_space_group_name_H-M  'P 1'

loop_
_symmetry_equiv_pos_as_xyz
 'x,y,z'

loop_
_atom_site_label
_atom_site_type_symbol
_atom_site_fract_x
_atom_site_fract_y
_atom_site_fract_z
_atom_site_charge
Cu         Cu      0.22861   0.30345   0.66811   0.85571
Cu         Cu      0.23732   0.11759   0.67278   0.86368
Cu         Cu      0.19899   0.30071   0.16881   0.85830
Cu         Cu      0.20664   0.11466   0.17414   0.86145
Cu         Cu      0.77138   0.69656   0.33189   0.85589
Cu         Cu      0.76268   0.88242   0.32722   0.86349
Cu         Cu      0.80101   0.69930   0.83119   0.85844
Cu         Cu      0.79336   0.88534   0.82586   0.86140
H          H       0.20367   0.36314   0.85950   0.11798
H          H       0.19353   0.36403   0.97426   0.12385
H          H       0.24756   0.05956   0.98276   0.12947
H          H       0.25723   0.05836   0.86851   0.11141
H          H       0.85259   0.05785   0.68354   0.11899
H          H       0.62555   0.05651   0.67925   0.11754
H          H       0.61113   0.36265   0.66094   0.11898
H          H       0.83988   0.36429   0.66449   0.11800
H          H       0.26056   0.06231   0.48104   0.12947
H          H       0.24654   0.06061   0.36750   0.11166
H          H       0.16739   0.36261   0.36166   0.11747
H          H       0.18025   0.36383   0.47569   0.12514
H          H       0.82309   0.05455   0.18598   0.11844
H          H       0.59597   0.05236   0.18335   0.11950
H          H       0.58089   0.35804   0.15981   0.11888
H          H       0.80994   0.36010   0.16076   0.11744
H          H       0.39407   0.46214   0.61329   0.10448
H          H       0.40329   0.64027   0.61049   0.12807
H          H       0.06153   0.64423   0.72037   0.12711
H          H       0.06390   0.46653   0.71392   0.08988
H          H       0.42645   0.95082   0.66541   0.10200
H          H       0.43363   0.77316   0.66320   0.12507
H          H       0.03748   0.78567   0.67099   0.11714
H          H       0.04750   0.96202   0.67604   0.10516
H          H       0.39640   0.94826   0.16883   0.10320
H          H       0.40360   0.77074   0.16503   0.12570
H          H       0.00784   0.78443   0.16481   0.11569
H          H       0.01777   0.96031   0.17234   0.10385
H          H       0.36873   0.45911   0.11618   0.10251
H          H       0.37838   0.63720   0.11277   0.12771
H          H       0.02592   0.64335   0.21303   0.12742
H          H       0.02813   0.46568   0.20693   0.08951
H          H       0.79632   0.63687   0.14050   0.11779
H          H       0.80646   0.63597   0.02574   0.12366
H          H       0.75244   0.94044   0.01724   0.12961
H          H       0.74277   0.94165   0.13149   0.11163
H          H       0.14741   0.94216   0.31646   0.11924
H          H       0.37445   0.94350   0.32075   0.11766
H          H       0.38887   0.63736   0.33906   0.11883
H          H       0.16012   0.63572   0.33551   0.11777
H          H       0.73944   0.93770   0.51896   0.12973
H          H       0.75345   0.93940   0.63250   0.11177
H          H       0.83261   0.63740   0.63834   0.11731
H          H       0.81975   0.63618   0.52431   0.12507
H          H       0.17691   0.94546   0.81402   0.11859
H          H       0.40403   0.94765   0.81665   0.11966
H          H       0.41911   0.64196   0.84019   0.11874
H          H       0.19006   0.63991   0.83924   0.11731
H          H       0.60593   0.53787   0.38671   0.10463
H          H       0.59671   0.35974   0.38951   0.12803
H          H       0.93846   0.35577   0.27963   0.12690
H          H       0.93609   0.53348   0.28608   0.09007
H          H       0.57355   0.04919   0.33459   0.10190
H          H       0.56637   0.22685   0.33680   0.12522
H          H       0.96252   0.21433   0.32901   0.11707
H          H       0.95250   0.03799   0.32396   0.10494
H          H       0.60359   0.05175   0.83117   0.10313
H          H       0.59640   0.22927   0.83497   0.12577
H          H       0.99215   0.21558   0.83519   0.11573
H          H       0.98223   0.03969   0.82766   0.10374
H          H       0.63127   0.54090   0.88382   0.10264
H          H       0.62161   0.36281   0.88723   0.12767
H          H       0.97408   0.35666   0.78697   0.12735
H          H       0.97187   0.53433   0.79307   0.08954
C          C       0.23296   0.20982   0.78894   0.56612
C          C       0.99683   0.21290   0.67522   0.57529
C          C       0.23030   0.21395   0.55260   0.57854
C          C       0.46825   0.20907   0.66714   0.57918
C          C       0.19996   0.21018   0.28986   0.56869
C          C       0.96715   0.20875   0.17372   0.57574
C          C       0.21400   0.21199   0.05342   0.57961
C          C       0.43808   0.20453   0.16999   0.57821
C          C       0.23104   0.21069   0.85719  -0.03051
C          C       0.21348   0.29726   0.88693  -0.11066
C          C       0.20802   0.29784   0.95046  -0.10235
C          C       0.22034   0.21194   0.98502  -0.01570
C          C       0.23837   0.12549   0.95534  -0.09328
C          C       0.24364   0.12495   0.89187  -0.10436
C          C       0.86033   0.21144   0.67363  -0.02565
C          C       0.79999   0.12445   0.67781  -0.09438
C          C       0.67304   0.12359   0.67545  -0.09945
C          C       0.60481   0.20957   0.66905  -0.02651
C          C       0.66512   0.29652   0.66539  -0.09884
C          C       0.79203   0.29744   0.66765  -0.09954
C          C       0.22236   0.21336   0.48469  -0.01397
C          C       0.24055   0.12748   0.45441  -0.09551
C          C       0.23262   0.12669   0.39139  -0.10309
C          C       0.20685   0.21160   0.35775  -0.03245
C          C       0.18795   0.29743   0.38817  -0.10702
C          C       0.19537   0.29823   0.45128  -0.10422
C          C       0.83059   0.20753   0.17271  -0.02523
C          C       0.77022   0.12070   0.17906  -0.09707
C          C       0.64315   0.11947   0.17793  -0.09857
C          C       0.57475   0.20515   0.17065  -0.02410
C          C       0.63504   0.29210   0.16483  -0.10034
C          C       0.76219   0.29326   0.16561  -0.10103
C          C       0.32232   0.50581   0.63591   0.09857
C          C       0.32740   0.60490   0.63532  -0.17874
C          C       0.23322   0.65811   0.66575   0.10508
C          C       0.13621   0.60741   0.69500  -0.17664
C          C       0.13790   0.50844   0.69267   0.08997
C          C       0.34255   0.91092   0.66683   0.10027
C          C       0.34571   0.81184   0.66490  -0.17494
C          C       0.23524   0.76331   0.66696   0.09582
C          C       0.12599   0.81867   0.67062  -0.16530
C          C       0.13073   0.91737   0.67272   0.10646
C          C       0.31264   0.90852   0.16837   0.10032
C          C       0.31579   0.80955   0.16545  -0.17495
C          C       0.20535   0.76138   0.16496   0.09648
C          C       0.09621   0.81698   0.16688  -0.16715
C          C       0.10091   0.91547   0.17027   0.10650
C          C       0.29478   0.50325   0.13659   0.09960
C          C       0.29998   0.60236   0.13563  -0.17943
C          C       0.20302   0.65624   0.16329   0.10425
C          C       0.10295   0.60605   0.18983  -0.17608
C          C       0.10462   0.50705   0.18788   0.09037
C          C       0.76704   0.79019   0.21106   0.56610
C          C       0.00316   0.78711   0.32478   0.57532
C          C       0.76969   0.78606   0.44740   0.57851
C          C       0.53175   0.79093   0.33286   0.57919
C          C       0.80004   0.78982   0.71014   0.56858
C          C       0.03285   0.79126   0.82628   0.57607
C          C       0.78600   0.78801   0.94658   0.57963
C          C       0.56192   0.79548   0.83001   0.57856
C          C       0.76896   0.78932   0.14281  -0.03045
C          C       0.78651   0.70275   0.11307  -0.11080
C          C       0.79198   0.70217   0.04955  -0.10248
C          C       0.77966   0.78807   0.01498  -0.01568
C          C       0.76162   0.87451   0.04466  -0.09314
C          C       0.75636   0.87506   0.10813  -0.10432
C          C       0.13967   0.78857   0.32637  -0.02579
C          C       0.20001   0.87556   0.32219  -0.09423
C          C       0.32696   0.87642   0.32455  -0.09950
C          C       0.39519   0.79044   0.33095  -0.02636
C          C       0.33488   0.70349   0.33461  -0.09906
C          C       0.20796   0.70257   0.33235  -0.09939
C          C       0.77764   0.78665   0.51531  -0.01386
C          C       0.75945   0.87253   0.54559  -0.09549
C          C       0.76738   0.87332   0.60861  -0.10284
C          C       0.79315   0.78841   0.64225  -0.03266
C          C       0.81205   0.70257   0.61183  -0.10697
C          C       0.80463   0.70178   0.54872  -0.10461
C          C       0.16941   0.79247   0.82729  -0.02535
C          C       0.22977   0.87931   0.82094  -0.09690
C          C       0.35685   0.88053   0.82207  -0.09839
C          C       0.42524   0.79486   0.82935  -0.02445
C          C       0.36496   0.70791   0.83517  -0.10034
C          C       0.23780   0.70674   0.83439  -0.10113
C          C       0.67768   0.49419   0.36409   0.09851
C          C       0.67260   0.39511   0.36468  -0.17872
C          C       0.76678   0.34190   0.33425   0.10508
C          C       0.86379   0.39260   0.30500  -0.17660
C          C       0.86210   0.49157   0.30733   0.08972
C          C       0.65745   0.08909   0.33317   0.10046
C          C       0.65429   0.18817   0.33510  -0.17499
C          C       0.76476   0.23670   0.33304   0.09573
C          C       0.87400   0.18134   0.32938  -0.16499
C          C       0.86927   0.08264   0.32728   0.10642
C          C       0.68736   0.09148   0.83163   0.10042
C          C       0.68421   0.19045   0.83455  -0.17477
C          C       0.79465   0.23862   0.83504   0.09650
C          C       0.90379   0.18303   0.83312  -0.16707
C          C       0.89909   0.08454   0.82973   0.10642
C          C       0.70522   0.49676   0.86341   0.09959
C          C       0.70002   0.39764   0.86437  -0.17940
C          C       0.79698   0.34377   0.83671   0.10405
C          C       0.89705   0.39395   0.81017  -0.17622
C          C       0.89538   0.49295   0.81212   0.09039
N          N       0.22930   0.45776   0.66424  -0.23888
N          N       0.23716   0.96341   0.67098  -0.24778
N          N       0.20723   0.96114   0.17127  -0.24597
N          N       0.19898   0.45571   0.16256  -0.23827
N          N       0.77069   0.54224   0.33576  -0.23857
N          N       0.76284   0.03660   0.32902  -0.24800
N          N       0.79277   0.03886   0.82873  -0.24632
N          N       0.80102   0.54429   0.83744  -0.23790
O          O       0.22959   0.29099   0.76042  -0.55642
O          O       0.23601   0.12846   0.76484  -0.54930
O          O       0.04526   0.29467   0.67576  -0.54730
O          O       0.05437   0.13226   0.67582  -0.54470
O          O       0.22418   0.29533   0.57672  -0.55073
O          O       0.24192   0.13315   0.58074  -0.54982
O          O       0.41197   0.29022   0.66344  -0.54832
O          O       0.41893   0.12762   0.66991  -0.53958
O          O       0.19365   0.29100   0.26083  -0.55757
O          O       0.20038   0.12846   0.26645  -0.55228
O          O       0.01614   0.29034   0.17277  -0.54903
O          O       0.02416   0.12787   0.17559  -0.54329
O          O       0.20559   0.29330   0.07778  -0.54939
O          O       0.21754   0.13091   0.08168  -0.54974
O          O       0.38202   0.28569   0.16668  -0.54753
O          O       0.38847   0.12311   0.17317  -0.53995
O          O       0.77041   0.70902   0.23958  -0.55668
O          O       0.76399   0.87154   0.23516  -0.54906
O          O       0.95474   0.70534   0.32424  -0.54762
O          O       0.94563   0.86775   0.32418  -0.54438
O          O       0.77581   0.70468   0.42328  -0.55103
O          O       0.75808   0.86686   0.41926  -0.54951
O          O       0.58803   0.70978   0.33656  -0.54868
O          O       0.58107   0.87238   0.33009  -0.53923
O          O       0.80635   0.70900   0.73917  -0.55785
O          O       0.79961   0.87155   0.73355  -0.55187
O          O       0.98385   0.70966   0.82723  -0.54951
O          O       0.97584   0.87213   0.82441  -0.54309
O          O       0.79440   0.70671   0.92223  -0.54972
O          O       0.78246   0.86909   0.91832  -0.54938
O          O       0.61798   0.71432   0.83332  -0.54809
O          O       0.61153   0.87689   0.82683  -0.53974

