data_crystal

_audit_creation_method 'AiiDA-DDEC plugin'

_cell_length_a         9.42855
_cell_length_b        10.19598
_cell_length_c        33.83734

_cell_angle_alpha     92.39095
_cell_angle_beta     88.94680
_cell_angle_gamma     118.38521

_symmetry_space_group_name_Hall 'P 1'
_symmetry_space_group_name_H-M  'P 1'

loop_
_symmetry_equiv_pos_as_xyz
 'x,y,z'

loop_
_atom_site_label
_atom_site_type_symbol
_atom_site_fract_x
_atom_site_fract_y
_atom_site_fract_z
_atom_site_charge
Mn         Mn      0.86351   0.02617   0.97123   1.02064
Mn         Mn      0.83493   0.97378   0.52345   1.05251
Mn         Mn      0.13678   0.97466   0.02877   1.02162
Mn         Mn      0.15123   0.01908   0.47132   1.03177
Mn         Mn      0.50093   0.00051   0.00012   1.08845
Mn         Mn      0.49376   0.00097   0.49923   1.13824
H          H       0.23419   0.55678   0.95424   0.12826
H          H       0.07295   0.36526   0.90239   0.13137
H          H       0.47723   0.55529   0.82250   0.12596
H          H       0.64254   0.73576   0.87626   0.11619
H          H       0.96095   0.97417   0.60681   0.11628
H          H       0.01655   0.03966   0.67895   0.13520
H          H       0.52571   0.21910   0.65754   0.12803
H          H       0.47154   0.15844   0.58530   0.11159
H          H       0.69062   0.78039   0.63919   0.10870
H          H       0.54048   0.66418   0.70003   0.12734
H          H       0.12936   0.69397   0.65753   0.12177
H          H       0.27881   0.80581   0.59576   0.11943
H          H       0.23810   0.16019   0.78658   0.15345
H          H       0.29100   0.39373   0.67916   0.14814
H          H       0.18764   0.56133   0.78906   0.15210
H          H       0.69944   0.44536   0.54520   0.12809
H          H       0.72395   0.63307   0.59814   0.12959
H          H       0.92053   0.43869   0.67715   0.12646
H          H       0.90854   0.26078   0.62246   0.11718
H          H      -0.00243   0.03081   0.89257   0.11313
H          H       0.98282   0.95697   0.82090   0.13535
H          H       0.30462   0.77606   0.84023   0.12815
H          H       0.31204   0.84185   0.91259   0.11492
H          H       0.88918   0.22168   0.86276   0.10678
H          H       0.86351   0.33084   0.80085   0.12589
H          H       0.41833   0.30446   0.84367   0.11831
H          H       0.44893   0.20247   0.90656   0.11653
H          H       0.08358   0.83723   0.71304   0.15467
H          H       0.89227   0.60085   0.82053   0.14892
H          H       0.62477   0.43253   0.71137   0.15231
H          H       0.76553   0.44363   0.04599   0.12790
H          H       0.92546   0.63756   0.09756   0.13073
H          H       0.52198   0.44716   0.17749   0.12653
H          H       0.35697   0.26409   0.12403   0.11598
H          H       0.02973   0.03423   0.39635   0.10997
H          H       0.98510   0.96873   0.32470   0.13348
H          H       0.47175   0.77311   0.34135   0.12584
H          H       0.51275   0.83072   0.41364   0.10846
H          H       0.31733   0.22399   0.35755   0.10829
H          H       0.47305   0.34036   0.29719   0.12586
H          H       0.87682   0.30376   0.34192   0.12062
H          H       0.72185   0.19134   0.40295   0.11593
H          H       0.76124   0.84195   0.21413   0.15374
H          H       0.72547   0.61190   0.32119   0.14972
H          H       0.81590   0.44317   0.20970   0.15049
H          H       0.29919   0.55197   0.45451   0.12651
H          H       0.27880   0.36588   0.40141   0.13199
H          H       0.08054   0.55826   0.32226   0.12577
H          H       0.08714   0.73331   0.37697   0.11700
H          H       0.00157   0.96877   0.10703   0.11242
H          H       0.01681   0.04266   0.17872   0.13646
H          H       0.69500   0.22388   0.15951   0.12885
H          H       0.68734   0.15819   0.08711   0.11413
H          H       0.11045   0.77845   0.13726   0.10669
H          H       0.13592   0.66855   0.19905   0.12618
H          H       0.58260   0.69766   0.15648   0.11903
H          H       0.55149   0.79912   0.09355   0.11556
H          H       0.91799   0.16002   0.28634   0.15532
H          H       0.10708   0.39997   0.17930   0.14774
H          H       0.37681   0.56483   0.28829   0.15297
C          C       0.54667   0.77618   0.94844   0.58364
C          C       0.44883   0.65895   0.91852  -0.06739
C          C       0.28739   0.55474   0.92557  -0.06453
C          C       0.19622   0.44886   0.89642  -0.20449
C          C       0.26483   0.45095   0.85922   0.25302
C          C       0.42467   0.55562   0.85135  -0.22256
C          C       0.51676   0.65654   0.88135  -0.07111
C          C       0.18410   0.03050   0.54894   0.57464
C          C       0.21331   0.06319   0.59136  -0.07112
C          C       0.08414   0.02885   0.61790  -0.06284
C          C       0.11449   0.06505   0.65804  -0.20843
C          C       0.27393   0.13381   0.67181   0.25667
C          C       0.40312   0.16642   0.64609  -0.19738
C          C       0.37255   0.13189   0.60586  -0.05634
C          C       0.57210   0.85968   0.57527   0.59283
C          C       0.49211   0.79646   0.61295  -0.07701
C          C       0.56674   0.75873   0.64268  -0.07418
C          C       0.48332   0.69425   0.67705  -0.20984
C          C       0.32420   0.66833   0.68149   0.26599
C          C       0.25104   0.71172   0.65296  -0.20110
C          C       0.33461   0.77451   0.61874  -0.05620
C          C       0.20762   0.35792   0.79184   0.28609
C          C       0.23571   0.25089   0.77143  -0.33325
C          C       0.26632   0.26599   0.73084   0.29708
C          C       0.26752   0.38347   0.71071  -0.36717
C          C       0.24045   0.48926   0.73246   0.30035
C          C       0.20939   0.47811   0.77303  -0.34564
C          C       0.78543   0.22852   0.54939   0.59491
C          C       0.80295   0.34200   0.58066  -0.06882
C          C       0.74974   0.44644   0.57396  -0.06190
C          C       0.76133   0.54972   0.60359  -0.20530
C          C       0.82168   0.54542   0.64075   0.25629
C          C       0.87281   0.44034   0.64829  -0.22576
C          C       0.86585   0.34105   0.61783  -0.06673
C          C       0.15657   0.97218   0.95006   0.59294
C          C       0.15469   0.93870   0.90723  -0.07210
C          C       0.06285   0.97323   0.88137  -0.06211
C          C       0.05489   0.93342   0.84131  -0.20506
C          C       0.14257   0.86274   0.82699   0.26289
C          C       0.23711   0.83057   0.85207  -0.19592
C          C       0.24149   0.86748   0.89228  -0.04925
C          C       0.69478   0.15107   0.92672   0.57666
C          C       0.67324   0.20875   0.88928  -0.06900
C          C       0.78809   0.24303   0.85894  -0.08180
C          C       0.77349   0.30319   0.82405  -0.20960
C          C       0.64145   0.32848   0.81948   0.25767
C          C       0.52184   0.28801   0.84844  -0.20384
C          C       0.53876   0.23002   0.88338  -0.06502
C          C       0.85194   0.63681   0.70825   0.28554
C          C       0.98791   0.74494   0.72820  -0.33749
C          C       0.00056   0.72900   0.76861   0.29861
C          C       0.88055   0.61111   0.78910  -0.36819
C          C       0.74601   0.50492   0.76782   0.30238
C          C       0.72980   0.51621   0.72733  -0.34809
C          C       0.45378   0.22442   0.05168   0.58363
C          C       0.55096   0.34144   0.08171  -0.06742
C          C       0.71218   0.44603   0.07459  -0.06617
C          C       0.80270   0.55298   0.10357  -0.20294
C          C       0.73376   0.55132   0.14066   0.25215
C          C       0.57438   0.44575   0.14870  -0.22035
C          C       0.48264   0.34373   0.11885  -0.06965
C          C       0.79385   0.96644   0.45219   0.49439
C          C       0.77323   0.93486   0.41044  -0.06956
C          C       0.90734   0.97502   0.38482  -0.07790
C          C       0.88336   0.93927   0.34459  -0.20228
C          C       0.72627   0.86588   0.32929   0.24550
C          C       0.59254   0.82824   0.35388  -0.19513
C          C       0.61576   0.86132   0.39423  -0.06611
C          C       0.42636   0.14734   0.42228   0.59951
C          C       0.51220   0.20547   0.38479  -0.07708
C          C       0.44085   0.24422   0.35448  -0.07436
C          C       0.52715   0.30844   0.32047  -0.21116
C          C       0.68614   0.33347   0.31687   0.26507
C          C       0.75537   0.28732   0.34573  -0.20436
C          C       0.66864   0.22427   0.37967  -0.05572
C          C       0.79396   0.64591   0.20784   0.28484
C          C       0.76655   0.75194   0.22891  -0.33717
C          C       0.74108   0.73748   0.26974   0.30084
C          C       0.74524   0.62160   0.28948  -0.36773
C          C       0.77049   0.51595   0.26700   0.29996
C          C       0.79584   0.52648   0.22621  -0.34814
C          C       0.20560   0.76429   0.45036   0.59981
C          C       0.19330   0.65309   0.41905  -0.07266
C          C       0.24922   0.55056   0.42567  -0.06148
C          C       0.24033   0.44853   0.39594  -0.20403
C          C       0.17975   0.45240   0.35878   0.25660
C          C       0.12785   0.55685   0.35118  -0.22347
C          C       0.13163   0.65444   0.38172  -0.06434
C          C       0.84270   0.02720   0.04982   0.59361
C          C       0.84461   0.06099   0.09254  -0.07532
C          C       0.93661   0.02649   0.11833  -0.06112
C          C       0.94492   0.06653   0.15834  -0.20514
C          C       0.85732   0.13737   0.17262   0.26511
C          C       0.76248   0.16944   0.14759  -0.19604
C          C       0.75787   0.13242   0.10740  -0.04869
C          C       0.30592   0.85000   0.07335   0.57796
C          C       0.32694   0.79219   0.11079  -0.07156
C          C       0.21175   0.75736   0.14108  -0.08152
C          C       0.22623   0.69677   0.17591  -0.20757
C          C       0.35857   0.67189   0.18051   0.25770
C          C       0.47861   0.71327   0.15163  -0.20407
C          C       0.46162   0.77129   0.11672  -0.06355
C          C       0.14939   0.36051   0.29131   0.28681
C          C       0.01342   0.25274   0.27126  -0.33517
C          C       0.00015   0.27008   0.23097   0.29822
C          C       0.11968   0.38880   0.21063  -0.36916
C          C       0.25450   0.49428   0.23195   0.30296
C          C       0.27144   0.48155   0.27234  -0.34620
O          O       0.47138   0.81668   0.97408  -0.54498
O          O       0.70042   0.83224   0.94634  -0.57010
O          O       0.03858   0.96657   0.53418  -0.56767
O          O       0.30013   0.06588   0.52375  -0.57113
O          O       0.70667   0.85746   0.56679  -0.52704
O          O       0.50637   0.91241   0.55328  -0.55468
O          O       0.17032   0.33760   0.83198  -0.21721
O          O       0.30586   0.16374   0.71223  -0.21198
O          O       0.23281   0.60609   0.71484  -0.20300
O          O       0.68540   0.20139   0.52148  -0.58162
O          O       0.87136   0.16256   0.55352  -0.56215
O          O       0.09002   0.04988   0.96402  -0.58733
O          O       0.22038   0.92177   0.97434  -0.55122
O          O       0.83180   0.15612   0.93281  -0.57097
O          O       0.57501   0.09896   0.95075  -0.53930
O          O       0.83652   0.65640   0.66829  -0.21687
O          O       0.14427   0.83120   0.78657  -0.21302
O          O       0.61734   0.38731   0.78543  -0.20579
O          O       0.52926   0.18426   0.02600  -0.54579
O          O       0.30003   0.16839   0.05362  -0.57011
O          O       0.93726   0.03792   0.47025  -0.54327
O          O       0.67669   0.92176   0.47828  -0.53824
O          O       0.29424   0.15399   0.42884  -0.56910
O          O       0.48648   0.09433   0.44633  -0.58121
O          O       0.82725   0.66672   0.16748  -0.21624
O          O       0.70122   0.83888   0.28854  -0.21329
O          O       0.78008   0.39877   0.28397  -0.20626
O          O       0.30685   0.79672   0.47833  -0.58413
O          O       0.11328   0.82406   0.44648  -0.57996
O          O       0.90944   0.94973   0.03581  -0.58732
O          O       0.77883   0.07767   0.02555  -0.55301
O          O       0.16906   0.84507   0.06713  -0.57110
O          O       0.42597   0.90179   0.04937  -0.53876
O          O       0.16394   0.34075   0.33133  -0.21553
O          O       0.85589   0.16909   0.21294  -0.21127
O          O       0.38279   0.61288   0.21449  -0.20480

