data_crystal

_audit_creation_method 'AiiDA-DDEC plugin'

_cell_length_a         9.57137
_cell_length_b        12.56509
_cell_length_c        18.44672

_cell_angle_alpha     98.55097
_cell_angle_beta     99.87482
_cell_angle_gamma     104.48544

_symmetry_space_group_name_Hall 'P 1'
_symmetry_space_group_name_H-M  'P 1'

loop_
_symmetry_equiv_pos_as_xyz
 'x,y,z'

loop_
_atom_site_label
_atom_site_type_symbol
_atom_site_fract_x
_atom_site_fract_y
_atom_site_fract_z
_atom_site_charge
Co         Co      0.98364   0.41708   0.64875   0.88377
Co         Co      0.02426   0.58311   0.35133   0.88432
Co         Co      0.00386   0.49998   0.50008   1.09200
Co         Co      0.50206   0.00285   0.00145   0.82325
H          H       0.15839   0.26362   0.22955   0.11228
H          H       0.13891   0.33999   0.31460   0.12811
H          H       0.30995   0.37292   0.28688   0.13188
H          H       0.17072   0.05623   0.35824   0.11939
H          H       0.04621   0.13982   0.35111   0.11596
H          H       0.08454   0.07188   0.26912   0.11163
H          H       0.32182   0.12813   0.23496   0.10347
H          H       0.46864   0.24449   0.28653   0.12698
H          H       0.42411   0.11980   0.32232   0.11770
H          H       0.50388   0.41978   0.62434   0.11963
H          H       0.56277   0.29832   0.40472   0.11421
H          H       0.12571   0.28259   0.44141   0.11636
H          H       0.72339   0.26310   0.20001   0.12998
H          H       0.57754   0.94002   0.25657   0.10668
H          H       0.85914   0.22306   0.42543   0.12051
H          H       0.79244   0.87409   0.34100   0.11963
H          H       0.82102   0.87021   0.43807   0.12595
H          H       0.93571   0.98058   0.40626   0.12351
H          H       0.47582   0.96437   0.40463   0.12468
H          H       0.55653   0.86528   0.44196   0.12672
H          H       0.51973   0.85934   0.34419   0.11508
H          H       0.87616   0.11881   0.50255   0.12764
H          H       0.75044   0.01026   0.52906   0.12505
H          H       0.69052   0.12241   0.49870   0.12872
H          H       0.15888   0.29576   0.73682   0.11338
H          H       0.12212   0.17256   0.83034   0.12843
H          H       0.67143   0.19363   0.80159   0.13949
H          H       0.72674   0.31121   0.70559   0.11025
H          H       0.12192   0.23022   0.99470   0.13698
H          H       0.35775   0.18251   0.04151   0.11596
H          H       0.19377   0.86058   0.91388   0.10799
H          H       0.95222   0.89381   0.86168   0.12530
H          H       0.84616   0.73773   0.77156   0.11189
H          H       0.87177   0.66407   0.68708   0.12853
H          H       0.69863   0.62678   0.71256   0.13122
H          H       0.83657   0.94543   0.64306   0.12050
H          H       0.96108   0.86174   0.65089   0.11607
H          H       0.92056   0.92907   0.73251   0.11278
H          H       0.68395   0.87187   0.76575   0.10191
H          H       0.53753   0.75523   0.71410   0.12566
H          H       0.58095   0.88037   0.67861   0.11869
H          H       0.50479   0.58048   0.37627   0.11952
H          H       0.44450   0.70191   0.59552   0.11457
H          H       0.88225   0.71862   0.55946   0.11656
H          H       0.28315   0.73801   0.80160   0.13135
H          H       0.42290   0.06268   0.74660   0.10781
H          H       0.14974   0.77790   0.57603   0.12137
H          H       0.21137   0.12829   0.66084   0.11947
H          H       0.18239   0.13148   0.56376   0.12595
H          H       0.06779   0.02168   0.59597   0.12326
H          H       0.52764   0.03808   0.59693   0.12494
H          H       0.44623   0.13673   0.55947   0.12669
H          H       0.48352   0.14305   0.65731   0.11541
H          H       0.12740   0.88308   0.49924   0.12753
H          H       0.25279   0.99207   0.47283   0.12522
H          H       0.31317   0.87998   0.50299   0.12860
H          H       0.84897   0.70412   0.26473   0.11388
H          H       0.88247   0.82742   0.17113   0.12783
H          H       0.33301   0.80728   0.19640   0.14022
H          H       0.28139   0.68935   0.29283   0.10937
H          H       0.87814   0.77170   0.00638   0.13812
H          H       0.64327   0.82115   0.96034   0.11672
H          H       0.81020   0.14196   0.08986   0.10763
H          H       0.05058   0.10642   0.14139   0.12607
C          C       0.21460   0.30356   0.28797  -0.42494
C          C       0.13407   0.11628   0.32740  -0.43000
C          C       0.37687   0.17583   0.29191  -0.44005
C          C       0.30420   0.35332   0.53723  -0.03335
C          C       0.45760   0.38142   0.56543  -0.11077
C          C       0.54925   0.36299   0.51643  -0.04021
C          C       0.48742   0.31130   0.44076  -0.14068
C          C       0.33455   0.27724   0.41263   0.05839
C          C       0.24450   0.30207   0.46162  -0.13128
C          C       0.20682   0.37552   0.58922   0.58124
C          C       0.71389   0.39946   0.54131   0.59702
C          C       0.26583   0.21832   0.33054   0.25361
C          C       0.80344   0.25253   0.31437  -0.03438
C          C       0.72197   0.20940   0.24105  -0.11407
C          C       0.63941   0.09650   0.22101  -0.03694
C          C       0.63979   0.02808   0.27460  -0.12834
C          C       0.71580   0.07142   0.34973   0.05449
C          C       0.79769   0.18470   0.36838  -0.12399
C          C       0.89817   0.36978   0.33529   0.57506
C          C       0.55780   0.05170   0.14169   0.53973
C          C       0.71345   0.99666   0.40844   0.24960
C          C       0.82245   0.92630   0.39768  -0.42627
C          C       0.55697   0.91713   0.39895  -0.43315
C          C       0.76070   0.06696   0.48910  -0.43484
C          C       0.05315   0.27000   0.75294   0.10032
C          C       0.03151   0.20219   0.80523  -0.19766
C          C       0.89311   0.17395   0.82451   0.08684
C          C       0.78053   0.21392   0.78842  -0.18553
C          C       0.81058   0.27960   0.73583   0.09270
C          C       0.01945   0.06549   0.92352   0.07595
C          C       0.13437   0.14777   0.97509  -0.17469
C          C       0.26498   0.12226   0.00116   0.09527
C          C       0.17280   0.94089   0.93037   0.09084
C          C       0.03916   0.95998   0.90133  -0.17080
C          C       0.79291   0.69787   0.71276  -0.42414
C          C       0.87249   0.88520   0.67398  -0.43244
C          C       0.62885   0.82433   0.70875  -0.43755
C          C       0.70387   0.64742   0.46344  -0.03252
C          C       0.55048   0.61908   0.43518  -0.11266
C          C       0.45845   0.63735   0.48397  -0.03823
C          C       0.52016   0.68926   0.55962  -0.14306
C          C       0.67303   0.72384   0.58793   0.05820
C          C       0.76346   0.69899   0.53908  -0.13100
C          C       0.80067   0.62470   0.41112   0.57788
C          C       0.29374   0.60074   0.45893   0.59653
C          C       0.74074   0.78276   0.67015   0.25282
C          C       0.20492   0.74844   0.68700  -0.03276
C          C       0.28436   0.79200   0.76072  -0.11419
C          C       0.36395   0.90570   0.78128  -0.03873
C          C       0.36311   0.97421   0.72773  -0.12909
C          C       0.28919   0.93058   0.65227   0.05495
C          C       0.21023   0.81666   0.63320  -0.12706
C          C       0.11083   0.63084   0.66532   0.57637
C          C       0.44295   0.95207   0.86096   0.54061
C          C       0.29019   0.00533   0.59350   0.25049
C          C       0.18114   0.07563   0.60431  -0.42620
C          C       0.44631   0.08512   0.60262  -0.43455
C          C       0.24275   0.93521   0.51273  -0.43502
C          C       0.95394   0.73010   0.24790   0.09707
C          C       0.97376   0.79797   0.19555  -0.19561
C          C       0.11126   0.82653   0.17539   0.08883
C          C       0.22476   0.78658   0.21053  -0.18598
C          C       0.19655   0.72076   0.26328   0.09387
C          C       0.98221   0.93581   0.07803   0.07724
C          C       0.86652   0.85429   0.02640  -0.17570
C          C       0.73635   0.88078   0.00087   0.09354
C          C       0.83006   0.06141   0.07274   0.09154
C          C       0.96323   0.04124   0.10126  -0.17260
S          S       0.84712   0.08992   0.88991   0.06423
S          S       0.15501   0.91107   0.11003   0.06495
N          N       0.94530   0.30891   0.71823  -0.26252
N          N       0.28486   0.02071   0.97883  -0.23578
N          N       0.06270   0.69134   0.28184  -0.26380
N          N       0.71748   0.98256   0.02384  -0.23649
O          O       0.06997   0.37551   0.55990  -0.62334
O          O       0.25014   0.39116   0.65868  -0.52017
O          O       0.77073   0.40233   0.61046  -0.56700
O          O       0.78565   0.42342   0.49122  -0.56843
O          O       0.89702   0.43478   0.28811  -0.51854
O          O       0.98536   0.40261   0.40032  -0.59780
O          O       0.55714   0.12268   0.09716  -0.56170
O          O       0.49968   0.94746   0.11577  -0.55846
O          O       0.93745   0.62432   0.44010  -0.62145
O          O       0.75671   0.60891   0.34165  -0.51861
O          O       0.23689   0.59772   0.38972  -0.56733
O          O       0.22188   0.57692   0.50898  -0.56636
O          O       0.11000   0.56557   0.71240  -0.52042
O          O       0.02549   0.59797   0.59981  -0.59811
O          O       0.44388   0.88196   0.90606  -0.56141
O          O       0.49965   0.05660   0.88678  -0.55963

