data_crystal

_audit_creation_method 'AiiDA-DDEC plugin'

_cell_length_a        13.14240
_cell_length_b        13.14413
_cell_length_c        16.06827

_cell_angle_alpha     92.04537
_cell_angle_beta     92.04012
_cell_angle_gamma     108.42469

_symmetry_space_group_name_Hall 'P 1'
_symmetry_space_group_name_H-M  'P 1'

loop_
_symmetry_equiv_pos_as_xyz
 'x,y,z'

loop_
_atom_site_label
_atom_site_type_symbol
_atom_site_fract_x
_atom_site_fract_y
_atom_site_fract_z
_atom_site_charge
Zn         Zn      0.42997   0.43968   0.55997   0.82834
Zn         Zn      0.57004   0.56032   0.44003   0.82821
Zn         Zn      0.56033   0.57003   0.94003   0.82820
Zn         Zn      0.43967   0.42998   0.05997   0.82827
H          H       0.18325   0.22422   0.91833   0.10665
H          H       0.26369   0.01226   0.55030   0.13227
H          H       0.09029   0.79546   0.56770   0.13751
H          H       0.97031   0.38608   0.33963   0.10522
H          H       0.25797   0.23283   0.54737   0.09361
H          H       0.73632   0.98775   0.44970   0.13211
H          H       0.04721   0.56313   0.09822   0.11167
H          H       0.17357   0.49888   0.13469   0.10981
H          H       0.77575   0.81678   0.58168   0.10645
H          H       0.05992   0.07194   0.77335   0.10507
H          H       0.19095   0.99662   0.85382   0.12517
H          H       0.98086   0.74351   0.06020   0.12737
H          H       0.31114   0.67593   0.83018   0.11380
H          H       0.00337   0.80908   0.64616   0.12510
H          H       0.89414   0.20996   0.98660   0.14131
H          H       0.68900   0.14667   0.25617   0.10135
H          H       0.75040   0.64438   0.16153   0.12363
H          H       0.02969   0.61393   0.66038   0.10522
H          H       0.56313   0.04717   0.59818   0.11183
H          H       0.43688   0.95284   0.40182   0.11172
H          H       0.32406   0.68890   0.66985   0.11376
H          H       0.07195   0.05990   0.27335   0.10520
H          H       0.22425   0.18323   0.41832   0.10663
H          H       0.60592   0.86891   0.07147   0.11878
H          H       0.10586   0.79005   0.01340   0.14140
H          H       0.67594   0.31111   0.33015   0.11389
H          H       0.78998   0.10584   0.51343   0.14124
H          H       0.56957   0.88231   0.52158   0.10415
H          H       0.68886   0.32408   0.16982   0.11367
H          H       0.82643   0.50113   0.86531   0.10990
H          H       0.23280   0.25796   0.04737   0.09364
H          H       0.33259   0.51742   0.22608   0.11892
H          H       0.49886   0.17355   0.63468   0.10986
H          H       0.88235   0.56957   0.02159   0.10423
H          H       0.01914   0.25650   0.93981   0.12737
H          H       0.53187   0.63228   0.76266   0.10343
H          H       0.74204   0.76718   0.45264   0.09380
H          H       0.14669   0.68898   0.75617   0.10132
H          H       0.90971   0.20455   0.43231   0.13777
H          H       0.89038   0.86731   0.85978   0.11000
H          H       0.89691   0.13786   0.14718   0.12941
H          H       0.66742   0.48259   0.77392   0.11887
H          H       0.01225   0.26364   0.05031   0.13228
H          H       0.35565   0.24961   0.33846   0.12361
H          H       0.36771   0.46812   0.73736   0.10359
H          H       0.13271   0.10964   0.64022   0.10963
H          H       0.85331   0.31103   0.24383   0.10134
H          H       0.21003   0.89417   0.48658   0.14101
H          H       0.92805   0.94010   0.72665   0.10540
H          H       0.48260   0.66746   0.27394   0.11879
H          H       0.50114   0.82646   0.36532   0.10984
H          H       0.20457   0.90973   0.93229   0.13755
H          H       0.80905   0.00338   0.14618   0.12512
H          H       0.46813   0.36773   0.23734   0.10357
H          H       0.43043   0.11770   0.47842   0.10420
H          H       0.24960   0.35562   0.83848   0.12371
H          H       0.51740   0.33254   0.72606   0.11896
H          H       0.94008   0.92807   0.22665   0.10532
H          H       0.25653   0.01916   0.43979   0.12739
H          H       0.31100   0.85334   0.74384   0.10134
H          H       0.95279   0.43688   0.90178   0.11150
H          H       0.76720   0.74205   0.95264   0.09364
H          H       0.63230   0.53188   0.26265   0.10346
H          H       0.81675   0.77578   0.08167   0.10648
H          H       0.10310   0.86215   0.85283   0.12909
H          H       0.38607   0.97036   0.83965   0.10517
H          H       0.61393   0.02965   0.16036   0.10536
H          H       0.86894   0.60593   0.57147   0.11872
H          H       0.86729   0.89037   0.35978   0.10989
H          H       0.79543   0.09028   0.06771   0.13754
H          H       0.13107   0.39407   0.42853   0.11878
H          H       0.86214   0.10307   0.35285   0.12945
H          H       0.74347   0.98085   0.56021   0.12738
H          H       0.39408   0.13109   0.92854   0.11878
H          H       0.10963   0.13270   0.14022   0.10974
H          H       0.13786   0.89693   0.64716   0.12953
H          H       0.11766   0.43043   0.97842   0.10416
H          H       0.99663   0.19093   0.35384   0.12522
H          H       0.64435   0.75039   0.66154   0.12359
H          H       0.98775   0.73637   0.94969   0.13214
C          C       0.67574   0.75124   0.72517  -0.17348
C          C       0.51383   0.87710   0.57084  -0.10276
C          C       0.95090   0.58885   0.68649  -0.14519
C          C       0.75784   0.54299   0.66630  -0.04041
C          C       0.94009   0.92758   0.05607  -0.02635
C          C       0.55020   0.22470   0.40729  -0.04577
C          C       0.03063   0.49087   0.88637  -0.13697
C          C       0.74669   0.74401   0.38765   0.09698
C          C       0.52239   0.83731   0.30064  -0.13330
C          C       0.36940   0.86027   0.69626  -0.14705
C          C       0.92756   0.94010   0.55607  -0.02607
C          C       0.04910   0.41116   0.31351  -0.14521
C          C       0.92995   0.03142   0.05326   0.05572
C          C       0.37550   0.76798   0.65463  -0.09974
C          C       0.81203   0.81560   0.83539  -0.18501
C          C       0.41732   0.13905   0.86421  -0.09695
C          C       0.55885   0.94105   0.26989   0.05603
C          C       0.78017   0.81649   0.75102   0.15586
C          C       0.53191   0.66162   0.10971   0.57293
C          C       0.77531   0.44981   0.09270  -0.04569
C          C       0.12289   0.48617   0.92917  -0.10288
C          C       0.88282   0.85662   0.19564  -0.14642
C          C       0.14608   0.93332   0.89321  -0.42149
C          C       0.75124   0.67576   0.22516  -0.17353
C          C       0.83728   0.52238   0.80063  -0.13336
C          C       0.22469   0.55020   0.90731  -0.04570
C          C       0.31481   0.38799   0.71859   0.10054
C          C       0.89633   0.00966   0.50308   0.05090
C          C       0.32402   0.53446   0.94506   0.57383
C          C       0.21411   0.97894   0.49293  -0.41393
C          C       0.25332   0.25600   0.61235   0.09689
C          C       0.10367   0.99034   0.49692   0.05084
C          C       0.33838   0.46809   0.39030   0.57338
C          C       0.96858   0.07005   0.44676   0.05563
C          C       0.54299   0.75785   0.16630  -0.04007
C          C       0.58885   0.95089   0.18649  -0.14531
C          C       0.96269   0.43875   0.17884   0.07206
C          C       0.41116   0.04912   0.81352  -0.14537
C          C       0.74402   0.74669   0.88766   0.09702
C          C       0.05991   0.07243   0.94393  -0.02534
C          C       0.16272   0.47762   0.19937  -0.13324
C          C       0.86098   0.58269   0.63579  -0.09703
C          C       0.97893   0.21408   0.99294  -0.41411
C          C       0.43875   0.96269   0.67884   0.07190
C          C       0.12471   0.15260   0.88828  -0.06497
C          C       0.87529   0.84741   0.11173  -0.06486
C          C       0.24876   0.32425   0.77484  -0.17332
C          C       0.07244   0.05990   0.44393  -0.02603
C          C       0.44115   0.05895   0.73011   0.05588
C          C       0.53446   0.32403   0.44505   0.57360
C          C       0.68519   0.61201   0.28141   0.10028
C          C       0.25313   0.48714   0.25076  -0.08885
C          C       0.18352   0.21983   0.74899   0.15571
C          C       0.62450   0.23202   0.34537  -0.09941
C          C       0.07006   0.96859   0.94675   0.05530
C          C       0.67598   0.46556   0.05494   0.57379
C          C       0.18797   0.18440   0.16461  -0.18490
C          C       0.84738   0.87531   0.61173  -0.06491
C          C       0.03142   0.92995   0.55324   0.05564
C          C       0.48713   0.25311   0.75075  -0.08917
C          C       0.47761   0.16270   0.69936  -0.13334
C          C       0.76797   0.37551   0.15461  -0.09923
C          C       0.81648   0.78018   0.25101   0.15584
C          C       0.05896   0.44116   0.23011   0.05582
C          C       0.44980   0.77531   0.59271  -0.04594
C          C       0.00966   0.89635   0.00307   0.05099
C          C       0.13975   0.63060   0.80375  -0.14726
C          C       0.23204   0.62450   0.84539  -0.09916
C          C       0.21983   0.18352   0.24899   0.15572
C          C       0.61200   0.68518   0.78143   0.10030
C          C       0.45701   0.24216   0.83370  -0.04000
C          C       0.46809   0.33839   0.89029   0.57291
C          C       0.18441   0.18798   0.66461  -0.18480
C          C       0.11718   0.14339   0.80436  -0.14652
C          C       0.46554   0.67597   0.55495   0.57396
C          C       0.06668   0.85394   0.60678  -0.42181
C          C       0.66162   0.53191   0.60970   0.57319
C          C       0.51287   0.74689   0.24925  -0.08913
C          C       0.49087   0.03066   0.38638  -0.13719
C          C       0.32426   0.24877   0.27483  -0.17332
C          C       0.15262   0.12469   0.38827  -0.06474
C          C       0.96937   0.50913   0.11363  -0.13692
C          C       0.74687   0.51286   0.74924  -0.08901
C          C       0.13903   0.41732   0.36421  -0.09705
C          C       0.63060   0.13974   0.30374  -0.14738
C          C       0.58269   0.86096   0.13579  -0.09713
C          C       0.87712   0.51384   0.07084  -0.10292
C          C       0.03731   0.56126   0.82116   0.07200
C          C       0.78589   0.02107   0.50707  -0.41400
C          C       0.81559   0.81203   0.33539  -0.18490
C          C       0.85392   0.06668   0.10679  -0.42166
C          C       0.99035   0.10366   0.99693   0.05073
C          C       0.50913   0.96935   0.61362  -0.13691
C          C       0.02107   0.78593   0.00706  -0.41424
C          C       0.48617   0.12291   0.42917  -0.10271
C          C       0.56125   0.03731   0.32116   0.07195
C          C       0.14340   0.11717   0.30436  -0.14665
C          C       0.86025   0.36941   0.19625  -0.14739
C          C       0.25598   0.25332   0.11235   0.09691
C          C       0.93332   0.14607   0.39323  -0.42202
C          C       0.94105   0.55885   0.76989   0.05603
C          C       0.38800   0.31482   0.21858   0.10033
C          C       0.24216   0.45702   0.33370  -0.04043
C          C       0.85661   0.88284   0.69565  -0.14650
N          N       0.35403   0.31920   0.13877  -0.21664
N          N       0.68081   0.64597   0.36122  -0.21681
N          N       0.31919   0.35404   0.63878  -0.21685
N          N       0.64598   0.68080   0.86123  -0.21661
O          O       0.41201   0.58387   0.91224  -0.54819
O          O       0.58800   0.41614   0.08776  -0.54831
O          O       0.47522   0.57021   0.13357  -0.53997
O          O       0.41998   0.32171   0.95848  -0.56053
O          O       0.32170   0.41999   0.45848  -0.56076
O          O       0.42980   0.52478   0.36644  -0.53996
O          O       0.41610   0.58801   0.58777  -0.54829
O          O       0.52946   0.68725   0.49557  -0.54776
O          O       0.58390   0.41200   0.41223  -0.54805
O          O       0.67831   0.58002   0.54152  -0.56058
O          O       0.68727   0.52947   0.99557  -0.54757
O          O       0.57020   0.47523   0.63356  -0.53997
O          O       0.58002   0.67829   0.04153  -0.56036
O          O       0.52478   0.42979   0.86643  -0.53980
O          O       0.47054   0.31275   0.50443  -0.54768
O          O       0.31273   0.47054   0.00443  -0.54770

