data_crystal

_audit_creation_method 'AiiDA-DDEC plugin'

_cell_length_a        10.29920
_cell_length_b        10.83417
_cell_length_c        19.54645

_cell_angle_alpha     90.00759
_cell_angle_beta     89.99464
_cell_angle_gamma     89.95209

_symmetry_space_group_name_Hall 'P 1'
_symmetry_space_group_name_H-M  'P 1'

loop_
_symmetry_equiv_pos_as_xyz
 'x,y,z'

loop_
_atom_site_label
_atom_site_type_symbol
_atom_site_fract_x
_atom_site_fract_y
_atom_site_fract_z
_atom_site_charge
Ni         Ni      0.92991   0.11345   0.50688   0.86687
Ni         Ni      0.74455   0.01838   0.39877   0.91330
Ni         Ni      0.57009   0.88669   0.00682   0.86686
Ni         Ni      0.75556   0.98194   0.89872   0.91551
Ni         Ni      0.06930   0.61549   0.99564   0.86687
Ni         Ni      0.25628   0.51947   0.10192   0.91317
Ni         Ni      0.43078   0.38448   0.49562   0.86741
Ni         Ni      0.24380   0.48058   0.60191   0.91301
H          H       0.67017   0.68943   0.52104   0.11559
H          H       0.56275   0.76904   0.57661   0.10799
H          H       0.79893   0.50426   0.56479   0.11157
H          H       0.78231   0.45511   0.65054   0.10813
H          H       0.97837   0.79652   0.60417   0.11371
H          H       0.91281   0.70492   0.53718   0.10915
H          H       0.65566   0.90122   0.67393   0.11054
H          H       0.82539   0.91277   0.68463   0.12201
H          H       0.62884   0.57039   0.73151   0.11195
H          H       0.53871   0.69800   0.70128   0.11560
H          H       0.95630   0.72789   0.72732   0.11778
H          H       0.87557   0.58779   0.74753   0.10869
H          H       0.72262   0.20883   0.47770   0.39721
H          H       0.81075   0.26036   0.38371   0.37675
H          H       0.83011   0.31049   0.02106   0.11592
H          H       0.93742   0.23098   0.07673   0.10832
H          H       0.70108   0.49570   0.06485   0.11147
H          H       0.71765   0.54490   0.15061   0.10808
H          H       0.52176   0.20338   0.10421   0.11361
H          H       0.58731   0.29501   0.03724   0.10918
H          H       0.84434   0.09869   0.17394   0.11033
H          H       0.67458   0.08725   0.18463   0.12204
H          H       0.87138   0.42952   0.23157   0.11173
H          H       0.96137   0.30189   0.20120   0.11588
H          H       0.54378   0.27215   0.22743   0.11746
H          H       0.62455   0.41223   0.24757   0.10861
H          H       0.77744   0.79130   0.97765   0.39732
H          H       0.68935   0.73973   0.88367   0.37726
H          H       0.32967   0.19158   0.98054   0.11560
H          H       0.43614   0.27058   0.92440   0.10940
H          H       0.20020   0.00453   0.93602   0.11139
H          H       0.21823   0.95610   0.85015   0.10796
H          H       0.02058   0.29693   0.89653   0.11439
H          H       0.08584   0.20512   0.96358   0.10923
H          H       0.34244   0.40359   0.82751   0.11123
H          H       0.17275   0.41344   0.81657   0.12172
H          H       0.37245   0.07221   0.76992   0.11178
H          H       0.46142   0.19986   0.80082   0.11592
H          H       0.04429   0.22846   0.77326   0.11782
H          H       0.12606   0.08853   0.75332   0.10804
H          H       0.27654   0.71174   0.02211   0.39815
H          H       0.19069   0.76343   0.11823   0.37744
H          H       0.17061   0.80877   0.48061   0.11566
H          H       0.06394   0.72982   0.42458   0.10876
H          H       0.29985   0.99582   0.43605   0.11116
H          H       0.28189   0.04407   0.35017   0.10777
H          H       0.47952   0.70323   0.39649   0.11509
H          H       0.41430   0.79498   0.46361   0.10932
H          H       0.15793   0.59637   0.32747   0.11109
H          H       0.32774   0.58691   0.31662   0.12200
H          H       0.12738   0.92776   0.26998   0.11143
H          H       0.03872   0.80008   0.30102   0.11575
H          H       0.45584   0.77194   0.27323   0.11806
H          H       0.37388   0.91180   0.25342   0.10827
H          H       0.22347   0.28843   0.52215   0.39850
H          H       0.30938   0.23661   0.61817   0.37726
C          C       0.78262   0.91381   0.54586   0.58577
C          C       0.76712   0.80638   0.59536   0.06263
C          C       0.65609   0.71997   0.57401  -0.23969
C          C       0.65353   0.60649   0.62276   0.05835
C          C       0.78382   0.53678   0.61726  -0.24404
C          C       0.89544   0.62286   0.63834   0.07112
C          C       0.89743   0.73586   0.59014  -0.23814
C          C       0.74736   0.84990   0.66943  -0.24355
C          C       0.74420   0.73726   0.71762   0.05146
C          C       0.63233   0.65016   0.69695  -0.24886
C          C       0.87571   0.66722   0.71258  -0.24316
C          C       0.54030   0.52724   0.59856   0.58896
C          C       0.02788   0.56288   0.62903   0.54831
C          C       0.72912   0.78235   0.79063   0.58568
C          C       0.71742   0.08621   0.04591   0.58525
C          C       0.73300   0.19363   0.09540   0.06319
C          C       0.84406   0.28003   0.07406  -0.24037
C          C       0.84651   0.39354   0.12282   0.05795
C          C       0.71618   0.46321   0.11732  -0.24354
C          C       0.60457   0.37712   0.13841   0.07010
C          C       0.60266   0.26411   0.09020  -0.23813
C          C       0.75268   0.15008   0.16947  -0.24305
C          C       0.75585   0.26276   0.21764   0.05172
C          C       0.86776   0.34980   0.19698  -0.24887
C          C       0.62435   0.33279   0.21263  -0.24279
C          C       0.95968   0.47292   0.09867   0.58958
C          C       0.47207   0.43708   0.12905   0.55015
C          C       0.77077   0.21771   0.29067   0.58552
C          C       0.21508   0.41470   0.95564   0.58513
C          C       0.23157   0.30737   0.90589   0.06326
C          C       0.34307   0.22131   0.92738  -0.24183
C          C       0.34618   0.10739   0.87883   0.05962
C          C       0.21605   0.03744   0.88372  -0.24407
C          C       0.10424   0.12325   0.86254   0.06981
C          C       0.10157   0.23630   0.91071  -0.23860
C          C       0.25147   0.35124   0.83185  -0.24264
C          C       0.25591   0.23817   0.78392   0.04856
C          C       0.36809   0.15153   0.80478  -0.24870
C          C       0.12465   0.16773   0.78847  -0.24255
C          C       0.45984   0.02835   0.90315   0.58940
C          C       0.97193   0.06293   0.87127   0.55213
C          C       0.26928   0.28143   0.71064   0.58952
C          C       0.28503   0.58532   0.45562   0.58600
C          C       0.26858   0.69279   0.40592   0.06450
C          C       0.15713   0.77892   0.42746  -0.24256
C          C       0.15394   0.89278   0.37887   0.06061
C          C       0.28408   0.96278   0.38377  -0.24416
C          C       0.39598   0.87699   0.36261   0.07059
C          C       0.39858   0.76388   0.41073  -0.23962
C          C       0.24880   0.64892   0.33185  -0.24293
C          C       0.24428   0.76198   0.28393   0.04913
C          C       0.13202   0.84847   0.30483  -0.24938
C          C       0.37546   0.83256   0.28853  -0.24345
C          C       0.04007   0.97162   0.40313   0.58832
C          C       0.52821   0.93722   0.37132   0.55228
C          C       0.23104   0.71874   0.21066   0.58991
O          O       0.85117   0.00622   0.56927  -0.53974
O          O       0.73928   0.90479   0.48613  -0.52891
O          O       0.43188   0.53765   0.62718  -0.52166
O          O       0.56473   0.45591   0.54602  -0.54596
O          O       0.03909   0.46303   0.59391  -0.55957
O          O       0.12828   0.61784   0.65229  -0.50788
O          O       0.68905   0.69947   0.83591  -0.46285
O          O       0.75659   0.89108   0.80553  -0.49183
O          O       0.79937   0.18655   0.45123  -0.84429
O          O       0.64885   0.99383   0.06926  -0.53925
O          O       0.76076   0.09530   0.98610  -0.52970
O          O       0.06835   0.46233   0.12715  -0.52336
O          O       0.93524   0.54446   0.04628  -0.54558
O          O       0.46090   0.53687   0.09392  -0.56059
O          O       0.37163   0.38214   0.15227  -0.50814
O          O       0.81109   0.30060   0.33594  -0.46291
O          O       0.74294   0.10916   0.30553  -0.49078
O          O       0.70074   0.81375   0.95118  -0.84474
O          O       0.14298   0.50550   0.93335  -0.53904
O          O       0.26157   0.40620   0.01476  -0.52855
O          O       0.56913   0.04234   0.87569  -0.51904
O          O       0.43539   0.95477   0.95476  -0.54722
O          O       0.96059   0.96261   0.90588  -0.56493
O          O       0.87157   0.11795   0.84816  -0.50816
O          O       0.31178   0.19815   0.66616  -0.46389
O          O       0.23728   0.38805   0.69455  -0.49158
O          O       0.20160   0.68809   0.04960  -0.84727
O          O       0.35715   0.49449   0.43332  -0.53949
O          O       0.23855   0.59364   0.51468  -0.52924
O          O       0.93109   0.95793   0.37542  -0.51729
O          O       0.06442   0.04484   0.45487  -0.54724
O          O       0.53939   0.03733   0.40617  -0.56571
O          O       0.62859   0.88249   0.34798  -0.50710
O          O       0.18822   0.80191   0.16622  -0.46421
O          O       0.26358   0.61207   0.19453  -0.49167
O          O       0.29845   0.31197   0.54959  -0.84754

