data_crystal

_audit_creation_method 'AiiDA-DDEC plugin'

_cell_length_a         9.59880
_cell_length_b        10.95923
_cell_length_c        25.65473

_cell_angle_alpha     92.56491
_cell_angle_beta     90.04130
_cell_angle_gamma     115.71945

_symmetry_space_group_name_Hall 'P 1'
_symmetry_space_group_name_H-M  'P 1'

loop_
_symmetry_equiv_pos_as_xyz
 'x,y,z'

loop_
_atom_site_label
_atom_site_type_symbol
_atom_site_fract_x
_atom_site_fract_y
_atom_site_fract_z
_atom_site_charge
Zn         Zn      0.46468   0.82973   0.52696   0.96460
Zn         Zn      0.63047   0.17016   0.97289   0.96739
Zn         Zn      0.53533   0.17028   0.47304   0.96452
Zn         Zn      0.36954   0.82985   0.02711   0.96734
Zn         Zn      0.50001   0.50000   0.50000   1.10125
Zn         Zn      0.00001   0.50000  -0.00001   1.09983
H          H       0.02093   0.24592   0.50356   0.13775
H          H       0.21129   0.01685   0.58562   0.12712
H          H       0.73455   0.94200   0.60597   0.11774
H          H       0.18178   0.96479   0.67328   0.10802
H          H       0.13325   0.81134   0.74543   0.10505
H          H       0.65893   0.58898   0.69273   0.10194
H          H       0.70951   0.73915   0.61974   0.10119
H          H       0.01698   0.76759   0.82314   0.10492
H          H       0.95933   0.62717   0.90013   0.09575
H          H       0.63691   0.28266   0.80911   0.11937
H          H       0.69270   0.42195   0.73088   0.11463
H          H       0.77648   0.75519   0.99632   0.13793
H          H       0.19524   0.98221   0.91499   0.12786
H          H       0.79439   0.05945   0.89341   0.11734
H          H       0.21810   0.03457   0.82678   0.10799
H          H       0.32243   0.18787   0.75464   0.10476
H          H       0.07051   0.41181   0.80716   0.10168
H          H       0.97133   0.26176   0.88009   0.10098
H          H       0.24840   0.23164   0.67682   0.10498
H          H       0.33203   0.37210   0.59995   0.09550
H          H       0.35422   0.71780   0.69089   0.11971
H          H       0.26980   0.57825   0.76904   0.11445
H          H       0.97908   0.75408   0.49643   0.13772
H          H       0.78872   0.98316   0.41438   0.12694
H          H       0.26546   0.05801   0.39403   0.11791
H          H       0.81824   0.03522   0.32672   0.10768
H          H       0.86676   0.18867   0.25457   0.10468
H          H       0.34109   0.41103   0.30727   0.10216
H          H       0.29051   0.26086   0.38026   0.10136
H          H       0.98303   0.23241   0.17686   0.10476
H          H       0.04069   0.37284   0.09987   0.09566
H          H       0.36311   0.71735   0.19089   0.11949
H          H       0.30732   0.57806   0.26912   0.11477
H          H       0.22354   0.24481   0.00368   0.13803
H          H       0.80477   0.01780   0.08501   0.12739
H          H       0.20563   0.94055   0.10659   0.11740
H          H       0.78191   0.96543   0.17322   0.10786
H          H       0.67759   0.81213   0.24536   0.10452
H          H       0.92951   0.58820   0.19284   0.10173
H          H       0.02868   0.73825   0.11991   0.10124
H          H       0.75161   0.76837   0.32318   0.10506
H          H       0.66799   0.62791   0.40005   0.09544
H          H       0.64580   0.28220   0.30911   0.11974
H          H       0.73022   0.42176   0.23096   0.11455
C          C       0.00613   0.16783   0.53058  -0.08468
C          C       0.13116   0.14047   0.54340  -0.04588
C          C       0.11328   0.03920   0.57814  -0.12226
C          C       0.97093   0.96688   0.60202   0.06442
C          C       0.84639   0.99463   0.58810  -0.12667
C          C       0.86181   0.09145   0.55199  -0.04632
C          C       0.94816   0.86645   0.64181   0.06698
C          C       0.06723   0.88224   0.67727  -0.12929
C          C       0.03933   0.79625   0.71833  -0.12946
C          C       0.89185   0.68997   0.72539   0.05526
C          C       0.77448   0.67009   0.68846  -0.12465
C          C       0.80240   0.75654   0.64759  -0.12117
C          C       0.86050   0.60479   0.77091   0.08353
C          C       0.93650   0.66067   0.81922  -0.13844
C          C       0.90405   0.58248   0.86271  -0.08558
C          C       0.79634   0.44583   0.85935  -0.05548
C          C       0.72045   0.38866   0.81133  -0.08122
C          C       0.75167   0.46732   0.76791  -0.13735
C          C       0.28497   0.22031   0.52016   0.58895
C          C       0.72093   0.10465   0.53476   0.59571
C          C       0.75818   0.36446   0.90618   0.59222
C          C       0.83994   0.83308   0.96935  -0.08525
C          C       0.99208   0.85994   0.95690  -0.04633
C          C       0.07517   0.96070   0.92212  -0.12377
C          C       0.00518   0.03327   0.89790   0.06528
C          C       0.85308   0.00622   0.91153  -0.12546
C          C       0.77192   0.90966   0.94761  -0.04482
C          C       0.08281   0.13364   0.85818   0.06614
C          C       0.18605   0.11751   0.82279  -0.13030
C          C       0.24373   0.20333   0.78170  -0.12791
C          C       0.20228   0.31001   0.77458   0.05656
C          C       0.10505   0.33036   0.81147  -0.12535
C          C       0.04685   0.24402   0.85233  -0.12077
C          C       0.25552   0.39512   0.72907   0.08386
C          C       0.27526   0.33884   0.68076  -0.13817
C          C       0.32140   0.41709   0.63732  -0.08424
C          C       0.35111   0.55424   0.64073  -0.05639
C          C       0.33181   0.61158   0.68868  -0.08192
C          C       0.28390   0.53283   0.73204  -0.13628
C          C       0.06561   0.77965   0.98056   0.59232
C          C       0.61779   0.89565   0.96492   0.59375
C          C       0.39588   0.63605   0.59404   0.59225
C          C       0.99388   0.83217   0.46942  -0.08490
C          C       0.86886   0.85953   0.45659  -0.04571
C          C       0.88673   0.96081   0.42186  -0.12251
C          C       0.02909   0.03313   0.39798   0.06463
C          C       0.15362   0.00538   0.41190  -0.12666
C          C       0.13820   0.90855   0.44801  -0.04597
C          C       0.05185   0.13355   0.35819   0.06709
C          C       0.93279   0.11776   0.32273  -0.12952
C          C       0.96068   0.20376   0.28167  -0.12909
C          C       0.10816   0.31004   0.27461   0.05509
C          C       0.22554   0.32991   0.31154  -0.12426
C          C       0.19761   0.24346   0.35240  -0.12134
C          C       0.13952   0.39522   0.22909   0.08349
C          C       0.06352   0.33933   0.18078  -0.13856
C          C       0.09596   0.41752   0.13729  -0.08554
C          C       0.20368   0.55418   0.14065  -0.05552
C          C       0.27956   0.61134   0.18867  -0.08105
C          C       0.24835   0.53269   0.23209  -0.13741
C          C       0.71505   0.77969   0.47984   0.58899
C          C       0.27908   0.89535   0.46524   0.59518
C          C       0.24183   0.63555   0.09382   0.59197
C          C       0.16007   0.16693   0.03065  -0.08504
C          C       0.00793   0.14006   0.04310  -0.04660
C          C       0.92485   0.03931   0.07788  -0.12354
C          C       0.99484   0.96674   0.10210   0.06513
C          C       0.14693   0.99378   0.08847  -0.12539
C          C       0.22810   0.09035   0.05239  -0.04449
C          C       0.91720   0.86636   0.14182   0.06621
C          C       0.81396   0.88250   0.17721  -0.13023
C          C       0.75628   0.79667   0.21830  -0.12799
C          C       0.79774   0.69000   0.22542   0.05661
C          C       0.89497   0.66965   0.18853  -0.12531
C          C       0.95316   0.75598   0.14767  -0.12090
C          C       0.74449   0.60488   0.27093   0.08396
C          C       0.72475   0.66116   0.31924  -0.13817
C          C       0.67862   0.58291   0.36268  -0.08436
C          C       0.64890   0.44577   0.35927  -0.05637
C          C       0.66821   0.38843   0.31132  -0.08197
C          C       0.71611   0.46717   0.26796  -0.13646
C          C       0.93441   0.22035   0.01944   0.59253
C          C       0.38222   0.10435   0.03508   0.59342
C          C       0.60414   0.36395   0.40596   0.59234
O          O       0.58965   0.02428   0.55187  -0.57643
O          O       0.66506   0.23826   0.90108  -0.51906
O          O       0.38821   0.17778   0.52591  -0.56559
O          O       0.73696   0.19537   0.50234  -0.52151
O          O       0.30432   0.32888   0.49772  -0.56666
O          O       0.81292   0.41990   0.95138  -0.62270
O          O       0.56332   0.97440   0.94804  -0.57687
O          O       0.43134   0.76285   0.59912  -0.51591
O          O       0.21117   0.82217   0.97601  -0.56690
O          O       0.54644   0.80501   0.99770  -0.52125
O          O       0.97510   0.67041   0.00216  -0.56545
O          O       0.39406   0.58025   0.54872  -0.62289
O          O       0.41037   0.97572   0.44813  -0.57574
O          O       0.33495   0.76175   0.09892  -0.51869
O          O       0.61180   0.82222   0.47409  -0.56592
O          O       0.26305   0.80463   0.49766  -0.52167
O          O       0.69569   0.67112   0.50228  -0.56656
O          O       0.18710   0.58010   0.04861  -0.62262
O          O       0.43669   0.02561   0.05196  -0.57664
O          O       0.56867   0.23716   0.40088  -0.51596
O          O       0.78884   0.17784   0.02399  -0.56724
O          O       0.45357   0.19500   0.00230  -0.52102
O          O       0.02492   0.32959   0.99784  -0.56521
O          O       0.60596   0.41975   0.45128  -0.62281

