data_crystal

_audit_creation_method 'AiiDA-DDEC plugin'

_cell_length_a        12.17948
_cell_length_b        12.17916
_cell_length_c        19.63496

_cell_angle_alpha     83.96130
_cell_angle_beta     83.96030
_cell_angle_gamma     62.00095

_symmetry_space_group_name_Hall 'P 1'
_symmetry_space_group_name_H-M  'P 1'

loop_
_symmetry_equiv_pos_as_xyz
 'x,y,z'

loop_
_atom_site_label
_atom_site_type_symbol
_atom_site_fract_x
_atom_site_fract_y
_atom_site_fract_z
_atom_site_charge
Cu         Cu      0.55420   0.06440   0.81399   0.89664
Cu         Cu      0.76604   0.01904   0.85065   0.86773
Cu         Cu      0.35650   0.68309   0.56152   0.87176
Cu         Cu      0.93558   0.44581   0.18602   0.89646
Cu         Cu      0.98095   0.23396   0.14936   0.86754
Cu         Cu      0.31693   0.64349   0.43847   0.87178
H          H       0.62802   0.87989   0.62515   0.11406
H          H       0.74521   0.37549   0.97934   0.12316
H          H       0.48918   0.45055   0.75961   0.08643
H          H       0.95249   0.69025   0.48904   0.12871
H          H       0.98141   0.85325   0.66496   0.13629
H          H       0.61890   0.68347   0.82707   0.10980
H          H       0.81762   0.68505   0.99534   0.13020
H          H       0.66971   0.67259   0.39143   0.10142
H          H       0.47587   0.82325   0.61185   0.10032
H          H       0.77793   0.51797   0.76775   0.09221
H          H       0.84240   0.35393   0.76255   0.08859
H          H       0.86766   0.52039   0.56587   0.08536
H          H       0.95266   0.51448   0.48639   0.09003
H          H       0.40722   0.83552   0.83206   0.11214
H          H       0.29373   0.63324   0.71122   0.10574
H          H       0.70933   0.29143   0.66892   0.10444
H          H       0.57397   0.42907   0.64432   0.11430
H          H       0.84684   0.47084   0.37854   0.10841
H          H       0.72992   0.42488   0.40421   0.10356
H          H       0.49394   0.89928   0.72297   0.12073
H          H       0.83264   0.19521   0.90014   0.09821
H          H       0.77989   0.39684   0.52574   0.09609
H          H       0.93038   0.32955   0.48196   0.10287
H          H       0.00942   0.20632   0.94861   0.13045
H          H       0.30976   0.69339   0.82654   0.11808
H          H       0.04173   0.81852   0.87399   0.10150
H          H       0.23019   0.81347   0.91826   0.12026
H          H       0.66350   0.56014   0.66510   0.09770
H          H       0.80353   0.42567   0.64304   0.10129
H          H       0.21548   0.01183   0.95463   0.11920
H          H       0.12011   0.37199   0.37484   0.11397
H          H       0.62449   0.25480   0.02067   0.12312
H          H       0.54943   0.51083   0.24039   0.08635
H          H       0.30974   0.04750   0.51095   0.12857
H          H       0.14674   0.01858   0.33504   0.13650
H          H       0.31654   0.38108   0.17295   0.10965
H          H       0.31495   0.18238   0.00467   0.13035
H          H       0.32740   0.33029   0.60857   0.10136
H          H       0.17675   0.52413   0.38815   0.10038
H          H       0.48203   0.22206   0.23225   0.09242
H          H       0.64606   0.15759   0.23744   0.08864
H          H       0.47961   0.13233   0.43413   0.08555
H          H       0.48553   0.04733   0.51361   0.09002
H          H       0.16448   0.59277   0.16794   0.11231
H          H       0.36676   0.70627   0.28878   0.10560
H          H       0.70855   0.29067   0.33108   0.10424
H          H       0.57092   0.42603   0.35568   0.11415
H          H       0.52914   0.15317   0.62146   0.10842
H          H       0.57509   0.27010   0.59578   0.10323
H          H       0.10071   0.50606   0.27703   0.12076
H          H       0.80479   0.16736   0.09986   0.09820
H          H       0.60316   0.22010   0.47425   0.09600
H          H       0.67044   0.06962   0.51803   0.10291
H          H       0.79367   0.99057   0.05140   0.13070
H          H       0.30660   0.69024   0.17346   0.11802
H          H       0.18147   0.95828   0.12601   0.10140
H          H       0.18653   0.76981   0.08173   0.12022
H          H       0.43985   0.33650   0.33490   0.09771
H          H       0.57432   0.19646   0.35696   0.10134
H          H       0.98817   0.78452   0.04536   0.11935
C          C       0.61473   0.26037   0.78390   0.58235
C          C       0.79048   0.52272   0.99252  -0.01759
C          C       0.11196   0.73064   0.55049   0.58698
C          C       0.72689   0.84594   0.61169  -0.11276
C          C       0.67973   0.52021   0.89746  -0.01347
C          C       0.56166   0.61954   0.46551   0.58855
C          C       0.73947   0.46399   0.95799  -0.09258
C          C       0.62111   0.45859   0.86238   0.40372
C          C       0.85589   0.45963   0.05639   0.59255
C          C       0.59026   0.39132   0.75588  -0.00531
C          C       0.78193   0.77620   0.55398  -0.01790
C          C       0.90744   0.74015   0.53493  -0.10366
C          C       0.92536   0.83305   0.63365  -0.09391
C          C       0.74121   0.94223   0.71553   0.58413
C          C       0.71550   0.69796   0.90850  -0.02428
C          C       0.79859   0.87268   0.65221  -0.03999
C          C       0.66723   0.63752   0.87330  -0.13031
C          C       0.70396   0.75066   0.50993   0.39980
C          C       0.69613   0.82519   0.88241   0.58831
C          C       0.77892   0.63960   0.96781  -0.10322
C          C       0.68863   0.60776   0.43703  -0.00703
C          C       0.97874   0.76918   0.57405  -0.02175
C          C       0.43960   0.79881   0.66103   0.09093
C          C       0.75966   0.44404   0.75335  -0.06257
C          C       0.86453   0.52072   0.51031  -0.07116
C          C       0.40038   0.80439   0.78341  -0.03917
C          C       0.33824   0.69096   0.71674   0.09676
C          C       0.64713   0.38833   0.68095  -0.18572
C          C       0.77916   0.47217   0.42047  -0.18854
C          C       0.44861   0.84071   0.72261  -0.13917
C          C       0.92275   0.11339   0.90524   0.09465
C          C       0.84297   0.41594   0.48798  -0.16803
C          C       0.02217   0.11902   0.93103  -0.12427
C          C       0.34566   0.72685   0.78046  -0.14459
C          C       0.04013   0.90233   0.88981   0.08138
C          C       0.14431   0.90047   0.91432  -0.14340
C          C       0.72201   0.46128   0.67962  -0.16715
C          C       0.13566   0.01062   0.93504  -0.03240
C          C       0.73961   0.38528   0.21610   0.58269
C          C       0.47727   0.20952   0.00748  -0.01763
C          C       0.26936   0.88804   0.44951   0.58711
C          C       0.15406   0.27311   0.38830  -0.11277
C          C       0.47978   0.32027   0.10255  -0.01340
C          C       0.38046   0.43834   0.53449   0.58837
C          C       0.53599   0.26053   0.04201  -0.09270
C          C       0.54140   0.37889   0.13762   0.40323
C          C       0.54037   0.14411   0.94361   0.59267
C          C       0.60867   0.40974   0.24412  -0.00530
C          C       0.22380   0.21807   0.44601  -0.01811
C          C       0.25985   0.09255   0.46507  -0.10362
C          C       0.16695   0.07463   0.36635  -0.09382
C          C       0.05776   0.25878   0.28447   0.58373
C          C       0.30203   0.28449   0.09151  -0.02438
C          C       0.12732   0.20141   0.34779  -0.03988
C          C       0.36248   0.33276   0.12671  -0.13020
C          C       0.24934   0.29603   0.49007   0.39996
C          C       0.17481   0.30388   0.11759   0.58822
C          C       0.36039   0.22108   0.03220  -0.10304
C          C       0.39224   0.31137   0.56296  -0.00685
C          C       0.23081   0.02126   0.42594  -0.02177
C          C       0.20119   0.56039   0.33897   0.09082
C          C       0.55595   0.24033   0.24665  -0.06269
C          C       0.47928   0.13546   0.48969  -0.07084
C          C       0.19562   0.59962   0.21659  -0.03911
C          C       0.30904   0.66176   0.28326   0.09673
C          C       0.61166   0.35287   0.31905  -0.18588
C          C       0.52781   0.22084   0.57953  -0.18851
C          C       0.15929   0.55138   0.27739  -0.13900
C          C       0.88660   0.07725   0.09475   0.09484
C          C       0.58405   0.15703   0.51202  -0.16814
C          C       0.88097   0.97783   0.06896  -0.12406
C          C       0.27315   0.65434   0.21954  -0.14443
C          C       0.09767   0.95988   0.11019   0.08130
C          C       0.09953   0.85569   0.08567  -0.14344
C          C       0.53871   0.27798   0.32038  -0.16708
C          C       0.98937   0.86434   0.06495  -0.03259
N          N       0.38485   0.72578   0.65810  -0.23880
N          N       0.75522   0.63508   0.48531  -0.12875
N          N       0.65075   0.44345   0.79375  -0.13493
N          N       0.93102   0.00730   0.88476  -0.25541
N          N       0.27422   0.61515   0.34190  -0.23905
N          N       0.36492   0.24477   0.51469  -0.12890
N          N       0.55654   0.34925   0.20625  -0.13444
N          N       0.99269   0.06898   0.11523  -0.25565
O          O       0.17818   0.74397   0.59214  -0.54236
O          O       0.49391   0.62180   0.41981  -0.57511
O          O       0.72102   0.18955   0.80731  -0.55185
O          O       0.81393   0.94419   0.75691  -0.55673
O          O       0.62151   0.99488   0.72389  -0.54864
O          O       0.53546   0.62250   0.52999  -0.54867
O          O       0.14781   0.68840   0.49132  -0.55656
O          O       0.89696   0.34209   0.06432  -0.56334
O          O       0.78023   0.85535   0.89214  -0.53901
O          O       0.52801   0.23200   0.77782  -0.52784
O          O       0.59510   0.89325   0.85213  -0.55269
O          O       0.86633   0.52837   0.09776  -0.54135
O          O       0.59905   0.83414   0.49485  -0.48375
O          O       0.54612   0.42689   0.89477  -0.47185
O          O       0.25603   0.82182   0.40786  -0.54220
O          O       0.37819   0.50610   0.58019  -0.57536
O          O       0.81044   0.27898   0.19269  -0.55173
O          O       0.05580   0.18603   0.24309  -0.55630
O          O       0.00512   0.37847   0.27610  -0.54870
O          O       0.37752   0.46453   0.47001  -0.54841
O          O       0.31159   0.85221   0.50868  -0.55666
O          O       0.65791   0.10304   0.93568  -0.56366
O          O       0.14465   0.21977   0.10787  -0.53877
O          O       0.76798   0.47200   0.22218  -0.52824
O          O       0.10673   0.40492   0.14787  -0.55283
O          O       0.47164   0.13366   0.90224  -0.54116
O          O       0.16587   0.40095   0.50515  -0.48393
O          O       0.57311   0.45388   0.10523  -0.47180

