data_crystal

_audit_creation_method 'AiiDA-DDEC plugin'

_cell_length_a         8.30587
_cell_length_b        16.53803
_cell_length_c        16.57143

_cell_angle_alpha     117.26637
_cell_angle_beta     99.73612
_cell_angle_gamma     99.50949

_symmetry_space_group_name_Hall 'P 1'
_symmetry_space_group_name_H-M  'P 1'

loop_
_symmetry_equiv_pos_as_xyz
 'x,y,z'

loop_
_atom_site_label
_atom_site_type_symbol
_atom_site_fract_x
_atom_site_fract_y
_atom_site_fract_z
_atom_site_charge
Cd         Cd      0.80054   0.35288   0.59657   1.00673
Cd         Cd      0.20182   0.64664   0.40589   1.00808
Cd         Cd      0.20482   0.40367   0.75897   1.00891
Cd         Cd      0.79686   0.59354   0.24345   1.01028
Cd         Cd      0.44693   0.24087   0.64640   1.00853
Cd         Cd      0.55481   0.75625   0.35386   1.00955
H          H       0.96943   0.33478   0.22127   0.10903
H          H       0.79489   0.60452   0.53072   0.14144
H          H       0.66075   0.12675   0.26163   0.09541
H          H       0.79174   0.76486   0.65055   0.10307
H          H       0.31721   0.21393   0.21503   0.10006
H          H       0.20962   0.23461   0.35417   0.10395
H          H       0.85102   0.16549   0.17537   0.09947
H          H       0.15163   0.83454   0.82685   0.10176
H          H       0.33962   0.87270   0.73941   0.09553
H          H       0.43624   0.35607   0.20477   0.10558
H          H       0.03498   0.66553   0.78218   0.11049
H          H       0.56510   0.64109   0.79814   0.10254
H          H       0.40402   0.74434   0.60616   0.11738
H          H       0.59701   0.25493   0.39540   0.11633
H          H       0.20781   0.39554   0.47324   0.14000
H          H       0.68493   0.78420   0.78962   0.10051
H          H       0.40343   0.73768   0.86782   0.09574
H          H       0.76644   0.20221   0.84580   0.10430
H          H       0.25190   0.21785   0.88499   0.10988
H          H       0.10398   0.78481   0.00270   0.10026
H          H       0.20414   0.60463   0.86243   0.11521
H          H       0.85814   0.64506   0.88331   0.10324
H          H       0.73547   0.52603   0.92474   0.14040
H          H       0.68145   0.82247   0.99225   0.09985
H          H       0.14218   0.35001   0.11694   0.10358
H          H       0.75212   0.77721   0.11612   0.10954
H          H       0.23284   0.79483   0.15494   0.10413
H          H       0.89446   0.21131   0.99766   0.09975
H          H       0.59926   0.26003   0.13504   0.09491
H          H       0.32369   0.17282   0.00888   0.09997
H          H       0.26548   0.46963   0.07638   0.14094
H          H       0.79741   0.39340   0.14027   0.11563
H          H       0.68688   0.00688   0.83446   0.09996
H          H       0.63549   0.88339   0.66555   0.11075
H          H       0.34198   0.13789   0.74549   0.11501
H          H       0.80911   0.07517   0.60302   0.14075
H          H       0.46617   0.86389   0.12648   0.09428
H          H       0.02568   0.88196   0.23661   0.10384
H          H       0.10055  -0.00132   0.78536   0.10076
H          H       0.53447   0.13190   0.87349   0.09434
H          H       0.31192   0.98816   0.16427   0.09986
H          H       0.36395   0.11304   0.33292   0.10912
H          H       0.07967   0.84643   0.64375   0.10434
H          H       0.65921   0.85946   0.25538   0.11545
H          H       0.97234   0.11731   0.76392   0.10319
H          H       0.92054   0.15349   0.35899   0.10396
H          H       0.18941   0.92302   0.39702   0.14159
H          H       0.89857   0.00161   0.21661   0.10062
C          C       0.18255   0.77817   0.76966  -0.10368
C          C       0.84694   0.38886   0.33083  -0.06607
C          C       0.82040   0.22172   0.23282  -0.09905
C          C       0.25988   0.38510   0.41439  -0.13534
C          C       0.67976   0.27183   0.35753  -0.15952
C          C       0.74206   0.61424   0.58921  -0.13531
C          C       0.32216   0.72763   0.64449  -0.16328
C          C       0.31741   0.28379   0.26884  -0.08669
C          C       0.88610   0.31594   0.25771  -0.08683
C          C       0.71548   0.20000   0.28182  -0.07154
C          C       0.68424   0.71456   0.73512  -0.08830
C          C       0.61949   0.63491   0.74117  -0.10453
C          C       0.47910   0.53321   0.31814   0.61683
C          C       0.32120   0.46513   0.40640   0.13726
C          C       0.74588   0.36644   0.38259   0.15504
C          C       0.38206   0.36295   0.26199  -0.10930
C          C       0.25707   0.63313   0.62010   0.15667
C          C       0.07771   0.51050   0.64499   0.56412
C          C       0.92506   0.48937   0.35837   0.56388
C          C       0.74269   0.70380   0.65751  -0.06296
C          C       0.52161   0.46445   0.68373   0.62372
C          C       0.11773   0.68407   0.74535  -0.08744
C          C       0.68064   0.53373   0.59646   0.13789
C          C       0.28619   0.79959   0.71999  -0.06978
C          C       0.61451   0.54354   0.67262  -0.09836
C          C       0.15653   0.61094   0.67224  -0.06710
C          C       0.25874   0.29523   0.34654  -0.06409
C          C       0.38679   0.45457   0.32993  -0.09623
C          C       0.43742   0.71755   0.92096  -0.07181
C          C       0.12133   0.73758   0.10433  -0.10714
C          C       0.91555   0.59296   0.06141   0.13721
C          C       0.36497   0.61757   0.98708   0.15431
C          C       0.94243   0.32750   0.87361  -0.09629
C          C       0.87818   0.25920   0.89653  -0.10763
C          C       0.48373   0.32738   0.94052  -0.06531
C          C       0.05782   0.66945   0.12756  -0.09730
C          C       0.08599   0.34286   0.04889  -0.06384
C          C       0.83901   0.31615   0.78321   0.61911
C          C       0.56545   0.27965   0.08149  -0.06962
C          C       0.32484   0.64244   0.91735  -0.15872
C          C       0.15396   0.41103   0.02764  -0.13533
C          C       0.08502   0.40372   0.93995   0.13748
C          C       0.41192   0.23019   0.01023  -0.10169
C          C       0.56878   0.64162   0.13442   0.56315
C          C       0.91412   0.65276   0.95165  -0.06275
C          C       0.59197   0.76592   0.99155  -0.10032
C          C       0.63647   0.37947   0.01505   0.15501
C          C       0.84663   0.58492   0.97337  -0.13633
C          C       0.63163   0.74139   0.06119  -0.08641
C          C       0.05028   0.73073   0.01831  -0.08855
C          C       0.51802   0.66914   0.06147  -0.06573
C          C       0.16155   0.68102   0.21796   0.62088
C          C       0.43186   0.35435   0.86723   0.56170
C          C       0.67708   0.35506   0.08509  -0.16022
C          C       0.94901   0.26541   0.98224  -0.08663
C          C       0.37145   0.25459   0.94058  -0.08636
C          C       0.01796   0.89669   0.63665  -0.10755
C          C       0.51592   0.07896   0.80029  -0.07200
C          C       0.14553   0.05976   0.46693   0.13706
C          C       0.48445   0.91727   0.19947  -0.07165
C          C       0.03153   0.98274   0.71549  -0.08866
C          C       0.06882   0.12599   0.45680  -0.09724
C          C       0.62066   0.98407   0.36595   0.15410
C          C       0.37934   0.01340   0.63414   0.15550
C          C       0.12675   0.97177   0.38685  -0.13614
C          C       0.42869   0.05767   0.31452  -0.08828
C          C       0.98200   0.10289   0.36549  -0.10481
C          C       0.03768   0.95025   0.29732  -0.06391
C          C       0.43636   0.86599   0.51121   0.56235
C          C       0.54131   0.05829   0.38782  -0.06359
C          C       0.93143   0.87297   0.54506  -0.09461
C          C       0.96777   0.01703   0.28623  -0.08947
C          C       0.87222   0.02683   0.61379  -0.13575
C          C       0.05507   0.21633   0.53568   0.62038
C          C       0.85422   0.93869   0.53413   0.13640
C          C       0.40798   0.08299   0.72864  -0.15788
C          C       0.40001   0.98772   0.22065  -0.09947
C          C       0.59955   0.00816   0.77841  -0.09961
C          C       0.56238   0.13179   0.48797   0.56030
C          C       0.57074   0.93876   0.68434  -0.08923
C          C       0.94577   0.78244   0.46677   0.61696
C          C       0.96105   0.04897   0.70357  -0.06234
C          C       0.59268   0.91411   0.27165  -0.15857
C          C       0.45829   0.93901   0.61158  -0.06477
N          N       0.70389   0.44209   0.45140  -0.02668
N          N       0.69948   0.44539   0.52892  -0.11006
N          N       0.29913   0.55746   0.55142  -0.02379
N          N       0.30291   0.55376   0.47366  -0.11362
N          N       0.82965   0.52566   0.08243  -0.11030
N          N       0.74757   0.44802   0.00822  -0.02814
N          N       0.17130   0.47129   0.91926  -0.11222
N          N       0.25338   0.54888   0.99356  -0.02483
N          N       0.25279   0.08087   0.55529  -0.11072
N          N       0.73855   0.99110   0.44161  -0.02619
N          N       0.74726   0.91705   0.44541  -0.11153
N          N       0.26117   0.00667   0.55875  -0.02523
O          O       0.60382   0.51737   0.28484  -0.52579
O          O       0.04681   0.44553   0.56105  -0.52288
O          O       0.39690   0.48001   0.71703  -0.52794
O          O       0.57336   0.39011   0.66176  -0.57991
O          O       0.03230   0.49609   0.70987  -0.61442
O          O       0.42740   0.60744   0.33970  -0.57631
O          O       0.96880   0.50402   0.29328  -0.61227
O          O       0.95721   0.55420   0.44250  -0.52356
O          O       0.67914   0.70652   0.21392  -0.61295
O          O       0.08760   0.65930   0.27014  -0.57909
O          O       0.68093   0.28211   0.76473  -0.52650
O          O       0.91284   0.33870   0.73148  -0.57837
O          O       0.51561   0.55754   0.11516  -0.52270
O          O       0.31966   0.71419   0.23583  -0.52790
O          O       0.48437   0.43854   0.88646  -0.52391
O          O       0.32195   0.28941   0.78780  -0.61200
O          O       0.46609   0.78610   0.49640  -0.61359
O          O       0.91399   0.23375   0.52018  -0.52720
O          O       0.40369   0.88557   0.44659  -0.52181
O          O       0.59536   0.11243   0.55283  -0.52468
O          O       0.81929   0.72917   0.39312  -0.57792
O          O       0.18137   0.26875   0.60959  -0.57762
O          O       0.08725   0.76558   0.48245  -0.52566
O          O       0.53224   0.21137   0.50239  -0.60990

