data_crystal

_audit_creation_method 'AiiDA-DDEC plugin'

_cell_length_a        16.48466
_cell_length_b        16.48261
_cell_length_c        17.90509

_cell_angle_alpha     109.62268
_cell_angle_beta     109.64872
_cell_angle_gamma     105.71076

_symmetry_space_group_name_Hall 'P 1'
_symmetry_space_group_name_H-M  'P 1'

loop_
_symmetry_equiv_pos_as_xyz
 'x,y,z'

loop_
_atom_site_label
_atom_site_type_symbol
_atom_site_fract_x
_atom_site_fract_y
_atom_site_fract_z
_atom_site_charge
Zn         Zn      0.38975   0.04253   0.09903   0.97062
Zn         Zn      0.79313   0.16273   0.12836   0.97693
Zn         Zn      0.78593   0.28366   0.99594   0.97938
Zn         Zn      0.94321   0.29032   0.90083   0.96822
Zn         Zn      0.03549   0.66606   0.87156   0.97729
Zn         Zn      0.28902   0.78975   0.00358   0.97646
Zn         Zn      0.54032   0.69318   0.40082   0.96787
Zn         Zn      0.91611   0.78547   0.37155   0.97728
Zn         Zn      0.03982   0.03902   0.50359   0.97692
Zn         Zn      0.29259   0.13971   0.59901   0.97026
Zn         Zn      0.41273   0.54312   0.62837   0.97721
Zn         Zn      0.53414   0.53601   0.49593   0.97991
H          H       0.31944   0.03430   0.84971   0.15226
H          H       0.49621   0.34984   0.24082   0.15558
H          H       0.79657   0.48213   0.22625   0.15386
H          H       0.01877   0.74682   0.60694   0.15229
H          H       0.18438   0.46995   0.15075   0.15254
H          H       0.10939   0.25495   0.75973   0.15101
H          H       0.25554   0.56993   0.77389   0.14855
H          H       0.13864   0.41134   0.39269   0.15225
H          H       0.71994   0.93443   0.65077   0.15254
H          H       0.50510   0.85957   0.25990   0.15113
H          H       0.81999   0.00554   0.27399   0.14863
H          H       0.66131   0.88854   0.89264   0.15220
H          H       0.28432   0.06942   0.34971   0.15245
H          H       0.59996   0.24622   0.74090   0.15087
H          H       0.73216   0.54661   0.72624   0.15352
H          H       0.99694   0.76864   0.10692   0.15242
C          C       0.24461   0.05289   0.70088   0.55966
C          C       0.27122   0.90351   0.90322   0.61621
C          C       0.25428   0.97115   0.79646  -0.09138
C          C       0.21987   0.89454   0.81175  -0.03022
C          C       0.13430   0.81237   0.74293   0.02289
C          C       0.09418   0.73013   0.75872   0.56590
C          C       0.58284   0.31898   0.17848   0.01280
C          C       0.51207   0.21627   0.12079   0.55792
C          C       0.71007   0.51325   0.28873   0.01704
C          C       0.56159   0.37949   0.23747  -0.10780
C          C       0.73102   0.45269   0.22937  -0.11344
C          C       0.66821   0.35635   0.17367  -0.00076
C          C       0.78334   0.61515   0.34696   0.56051
C          C       0.08479   0.80936   0.65989  -0.09655
C          C       0.20492   0.96831   0.71378   0.02195
C          C       0.11739   0.88776   0.64627  -0.02574
C          C       0.69985   0.29673   0.11632   0.61394
C          C       0.62547   0.47548   0.29465  -0.00392
C          C       0.59896   0.53417   0.35842   0.61273
C          C       0.05838   0.88948   0.56258   0.61439
C          C       0.35125   0.54288   0.29906   0.55917
C          C       0.00008   0.36804   0.09651   0.61786
C          C       0.17417   0.45802   0.20383  -0.09054
C          C       0.08215   0.40840   0.18823  -0.03341
C          C       0.06843   0.39141   0.25674   0.02444
C          C       0.97029   0.33550   0.24062   0.56350
C          C       0.14022   0.40403   0.82171   0.01234
C          C       0.09477   0.39119   0.87904   0.55824
C          C       0.22459   0.42095   0.71184   0.01606
C          C       0.14222   0.32383   0.76328  -0.10465
C          C       0.22310   0.50122   0.77076  -0.10913
C          C       0.18231   0.49410   0.82628   0.00023
C          C       0.26863   0.43578   0.65391   0.56188
C          C       0.14829   0.42493   0.34001  -0.09648
C          C       0.25380   0.49100   0.28653   0.02184
C          C       0.24048   0.47138   0.35408  -0.02483
C          C       0.18087   0.58356   0.88370   0.61552
C          C       0.18092   0.33061   0.70615  -0.00142
C          C       0.17493   0.24031   0.64173   0.61138
C          C       0.32580   0.49568   0.43782   0.61518
C          C       0.79288   0.10125   0.79907   0.55904
C          C       0.61806   0.75010   0.59651   0.61721
C          C       0.70800   0.92418   0.70383  -0.09072
C          C       0.65838   0.83215   0.68822  -0.03297
C          C       0.64139   0.81838   0.75672   0.02380
C          C       0.58551   0.72025   0.74063   0.56383
C          C       0.65413   0.89030   0.32181   0.01261
C          C       0.64126   0.84478   0.37910   0.55842
C          C       0.67101   0.97466   0.21191   0.01583
C          C       0.57395   0.89234   0.26339  -0.10481
C          C       0.75127   0.97314   0.27085  -0.10942
C          C       0.74418   0.93233   0.32636  -0.00000
C          C       0.68591   0.01872   0.15401   0.56114
C          C       0.67491   0.89820   0.83997  -0.09760
C          C       0.74099   0.00378   0.78653   0.02073
C          C       0.72136   0.99040   0.85406  -0.02111
C          C       0.83364   0.93085   0.38372   0.61582
C          C       0.58066   0.93096   0.20617  -0.00168
C          C       0.49031   0.92489   0.14172   0.61207
C          C       0.74561   0.07566   0.93775   0.61430
C          C       0.30291   0.99472   0.20094   0.55966
C          C       0.15356   0.02119   0.40320   0.61683
C          C       0.22120   0.00424   0.29649  -0.09189
C          C       0.14459   0.96977   0.31176  -0.03097
C          C       0.06245   0.88418   0.24292   0.02366
C          C       0.98016   0.84407   0.25861   0.56568
C          C       0.56903   0.33287   0.67854   0.01331
C          C       0.46630   0.26211   0.62083   0.55791
C          C       0.76328   0.46010   0.78880   0.01668
C          C       0.62955   0.31159   0.73751  -0.10439
C          C       0.70275   0.48108   0.72943  -0.11262
C          C       0.60641   0.41825   0.67372  -0.00097
C          C       0.86518   0.53333   0.84701   0.56067
C          C       0.05945   0.83468   0.15991  -0.09656
C          C       0.21836   0.95492   0.21383   0.02278
C          C       0.13784   0.86737   0.14632  -0.02611
C          C       0.54679   0.44986   0.61631   0.61389
C          C       0.72552   0.37549   0.79473  -0.00325
C          C       0.78423   0.34896   0.85852   0.61249
C          C       0.13963   0.80844   0.06270   0.61488
O          O       0.70701   0.22724   0.12907  -0.53026
O          O       0.72188   0.32583   0.06551  -0.50907
O          O       0.80759   0.65277   0.42884  -0.38616
O          O       0.81970   0.65293   0.30657  -0.50820
O          O       0.05658   0.74412   0.81164  -0.52172
O          O       0.09963   0.65522   0.71924  -0.38649
O          O       0.26285   0.82612   0.90729  -0.56126
O          O       0.31773   0.98802   0.96765  -0.52412
O          O       0.26384   0.03893   0.63479  -0.52521
O          O       0.46946   0.17980   0.15831  -0.50844
O          O       0.60272   0.61229   0.35952  -0.51617
O          O       0.57138   0.49626   0.40197  -0.52401
O          O       0.01045   0.81108   0.49026  -0.51579
O          O       0.06104   0.97098   0.57410  -0.56326
O          O       0.49654   0.17549   0.04146  -0.38341
O          O       0.25623   0.13088   0.75617  -0.38354
O          O       0.09898   0.57912   0.87087  -0.53041
O          O       0.26134   0.65580   0.93465  -0.50852
O          O       0.22501   0.37796   0.57209  -0.38954
O          O       0.34674   0.51270   0.69453  -0.50868
O          O       0.93122   0.24485   0.18833  -0.52145
O          O       0.93535   0.38136   0.27998  -0.38304
O          O       0.91820   0.35402   0.09182  -0.56207
O          O       0.02067   0.35139   0.03246  -0.52401
O          O       0.40370   0.62827   0.36524  -0.52566
O          O       0.02141   0.31057   0.84186  -0.50912
O          O       0.25197   0.24234   0.64115  -0.51620
O          O       0.09273   0.17008   0.59698  -0.51948
O          O       0.32012   0.52055   0.51030  -0.51714
O          O       0.39536   0.48575   0.42620  -0.56320
O          O       0.13270   0.45602   0.95784  -0.38196
O          O       0.37352   0.49909   0.24350  -0.38417
O          O       0.82918   0.84895   0.37088  -0.53017
O          O       0.90589   0.01131   0.43462  -0.50894
O          O       0.62804   0.97513   0.07220  -0.38941
O          O       0.76292   0.09675   0.19461  -0.50808
O          O       0.49484   0.68120   0.68834  -0.52150
O          O       0.63134   0.68530   0.78002  -0.38333
O          O       0.60402   0.66821   0.59184  -0.56171
O          O       0.60148   0.77070   0.53246  -0.52393
O          O       0.87827   0.15368   0.86526  -0.52586
O          O       0.56060   0.77147   0.34189  -0.50921
O          O       0.49232   0.00198   0.14121  -0.51664
O          O       0.42011   0.84268   0.09691  -0.51921
O          O       0.77055   0.07008   0.01029  -0.51720
O          O       0.73552   0.14512   0.92596  -0.56295
O          O       0.70612   0.88257   0.45788  -0.38197
O          O       0.74910   0.12355   0.74350  -0.38422
O          O       0.47734   0.45707   0.62908  -0.52958
O          O       0.57587   0.47179   0.56545  -0.50943
O          O       0.90282   0.55755   0.92889  -0.38623
O          O       0.90291   0.56966   0.80658  -0.50813
O          O       0.99405   0.80645   0.31154  -0.52176
O          O       0.90531   0.84956   0.21899  -0.38613
O          O       0.07618   0.01278   0.40728  -0.56145
O          O       0.23811   0.06782   0.46760  -0.52443
O          O       0.28904   0.01420   0.13500  -0.52469
O          O       0.42981   0.21954   0.65835  -0.50820
O          O       0.86230   0.35270   0.85951  -0.51615
O          O       0.74641   0.32140   0.90211  -0.52332
O          O       0.06123   0.76030   0.99036  -0.51624
O          O       0.22127   0.81145   0.07434  -0.56332
O          O       0.42558   0.24657   0.54148  -0.38319
O          O       0.38092   0.00625   0.25619  -0.38360

