data_crystal

_audit_creation_method 'AiiDA-DDEC plugin'

_cell_length_a        10.18479
_cell_length_b        16.73389
_cell_length_c        17.76545

_cell_angle_alpha     90.00946
_cell_angle_beta     90.01171
_cell_angle_gamma     90.01187

_symmetry_space_group_name_Hall 'P 1'
_symmetry_space_group_name_H-M  'P 1'

loop_
_symmetry_equiv_pos_as_xyz
 'x,y,z'

loop_
_atom_site_label
_atom_site_type_symbol
_atom_site_fract_x
_atom_site_fract_y
_atom_site_fract_z
_atom_site_charge
Ho         Ho      0.82418   0.52408   0.11560   2.14380
Ho         Ho      0.62677   0.31957   0.10244   2.12571
Ho         Ho      0.17573   0.47610   0.61554   2.14189
Ho         Ho      0.37025   0.68058   0.60254   2.12944
Ho         Ho      0.67900   0.02396   0.11732   2.14566
Ho         Ho      0.87336   0.81950   0.10255   2.12686
Ho         Ho      0.32485   0.97602   0.61557   2.14082
Ho         Ho      0.12990   0.18062   0.60242   2.12922
H          H       0.03885   0.46856   0.94774   0.13336
H          H       0.62016   0.63512   0.92962   0.13605
H          H       0.92994   0.19905   0.43214   0.12343
H          H       0.13860   0.45150   0.80994   0.12237
H          H       0.85042   0.20526   0.28915   0.14222
H          H       0.52841   0.64978   0.78840   0.12985
H          H       0.96106   0.53113   0.44775   0.13240
H          H       0.37972   0.36477   0.42943   0.13595
H          H       0.07153   0.80043   0.93238   0.12484
H          H       0.86188   0.54823   0.30985   0.12344
H          H       0.14734   0.79409   0.78882   0.14217
H          H       0.47168   0.34986   0.28834   0.13007
H          H       0.46055   0.96909   0.94773   0.13372
H          H       0.87946   0.13497   0.92960   0.13583
H          H       0.57041   0.69923   0.43247   0.12429
H          H       0.36120   0.95166   0.80999   0.12238
H          H       0.64946   0.70553   0.28966   0.14196
H          H       0.97166   0.15003   0.78862   0.13025
H          H       0.53834   0.03152   0.44796   0.13295
H          H       0.11991   0.86351   0.43108   0.13623
H          H       0.42963   0.30004   0.93285   0.12304
H          H       0.63897   0.04869   0.31021   0.12175
H          H       0.35271   0.29350   0.78934   0.14192
H          H       0.02972   0.84940   0.28930   0.13087
C          C       0.57740   0.48470   0.00326   0.66928
C          C       0.92096   0.32828   0.28788  -0.13458
C          C       0.53539   0.51595   0.92982  -0.13289
C          C       0.01484   0.42104   0.90842  -0.10805
C          C       0.99417   0.32188   0.42010  -0.14077
C          C       0.56579   0.58995   0.89855  -0.10395
C          C       0.45420   0.52905   0.79977  -0.12936
C          C       0.93971   0.25025   0.39515  -0.10868
C          C       0.06671   0.41222   0.83554  -0.12016
C          C       0.01575   0.34624   0.79807  -0.13445
C          C       0.92371   0.36213   0.92562  -0.12827
C          C       0.84451   0.35644   0.99425   0.65224
C          C       0.87456   0.35810   0.21496   0.66821
C          C       0.89766   0.25364   0.31981  -0.10038
C          C       0.51914   0.59742   0.82425  -0.10762
C          C       0.05398   0.31872   0.72238   0.66948
C          C       0.38975   0.51726   0.72674   0.64318
C          C       0.03762   0.33834   0.49773   0.68053
C          C       0.42041   0.51520   0.50278   0.66795
C          C       0.07499   0.67124   0.78758  -0.13463
C          C       0.46310   0.48423   0.42934  -0.13212
C          C       0.98501   0.57886   0.40868  -0.10810
C          C       0.00575   0.67794   0.92052  -0.14195
C          C       0.43394   0.40991   0.39830  -0.10344
C          C       0.54560   0.47073   0.29970  -0.12944
C          C       0.06038   0.74936   0.89528  -0.10896
C          C       0.93338   0.58775   0.33567  -0.11900
C          C       0.98498   0.65369   0.29831  -0.13574
C          C       0.07605   0.63770   0.42622  -0.12787
C          C       0.15572   0.64381   0.49453   0.65030
C          C       0.12040   0.64196   0.71402   0.66794
C          C       0.10006   0.74579   0.81954  -0.10046
C          C       0.48113   0.40223   0.32417  -0.10837
C          C       0.94920   0.68156   0.22226   0.66705
C          C       0.61005   0.48229   0.22680   0.64495
C          C       0.96357   0.66112  -0.00177   0.68192
C          C       0.92594   0.98482   0.00385   0.66841
C          C       0.57776   0.82852   0.28788  -0.13466
C          C       0.96481   0.01570   0.92958  -0.13061
C          C       0.48509   0.92131   0.90875  -0.10768
C          C       0.50552   0.82195   0.42038  -0.14040
C          C       0.93390   0.08981   0.89862  -0.10446
C          C       0.04478   0.02927   0.79948  -0.13299
C          C       0.56029   0.75044   0.39545  -0.11010
C          C       0.43278   0.91223   0.83587  -0.12065
C          C       0.48371   0.84617   0.79848  -0.13383
C          C       0.57651   0.86260   0.92610  -0.12660
C          C       0.65675   0.85703   0.99447   0.65090
C          C       0.62386   0.85822   0.21466   0.66710
C          C       0.60193   0.75399   0.32005  -0.09946
C          C       0.98027   0.09763   0.82439  -0.10672
C          C       0.44646   0.81853   0.72260   0.66831
C          C       0.11004   0.01865   0.72657   0.64982
C          C       0.46301   0.83870   0.49814   0.68046
C          C       0.08142   0.01494   0.50307   0.66998
C          C       0.42488   0.17077   0.78814  -0.13544
C          C       0.03945   0.98388   0.42982  -0.13342
C          C       0.51548   0.07919   0.40858  -0.10838
C          C       0.49493   0.17739   0.92103  -0.14192
C          C       0.06765   0.90915   0.39942  -0.10169
C          C       0.95689   0.97029   0.30068  -0.13038
C          C       0.44009   0.24884   0.89584  -0.10993
C          C       0.56688   0.08800   0.33556  -0.11762
C          C       0.51517   0.15378   0.29808  -0.13692
C          C       0.42446   0.13807   0.42595  -0.12764
C          C       0.34524   0.14441   0.49448   0.64868
C          C       0.37950   0.14129   0.71463   0.66740
C          C       0.39990   0.24525   0.82016  -0.09978
C          C       0.02074   0.90164   0.32527  -0.10842
C          C       0.55128   0.18132   0.22218   0.66851
C          C       0.89093   0.98152   0.22821   0.64534
C          C       0.53836   0.16043  -0.00145   0.68134
S          S       0.44896   0.45589   0.86823   0.22272
S          S       0.90315   0.29512   0.85257   0.22869
S          S      -0.00272   0.39269   0.34976   0.23009
S          S       0.54948   0.54428   0.36776   0.22186
S          S       0.09708   0.70475   0.35338   0.22891
S          S      -0.00087   0.60723   0.85017   0.23111
S          S       0.05001   0.95572   0.86733   0.22315
S          S       0.59662   0.79528   0.85310   0.22711
S          S       0.50132   0.89275   0.35004   0.23033
S          S       0.95416   0.04433   0.36823   0.22538
S          S       0.40326   0.20496   0.35304   0.22909
S          S       0.50051   0.10670   0.85075   0.23011
O          O       0.54513   0.41270   0.01981  -0.68962
O          O       0.39504   0.57375   0.67781  -0.74937
O          O       0.03339   0.24582   0.70480  -0.65440
O          O       0.77201   0.29509   0.00450  -0.64590
O          O       0.89848   0.43178   0.19919  -0.70590
O          O       0.64529   0.53135   0.04496  -0.67953
O          O       0.80889   0.30975   0.17407  -0.66808
O          O       0.02815   0.27985   0.54365  -0.69778
O          O       0.84855   0.41456   0.04148  -0.75071
O          O       0.32486   0.45327   0.71482  -0.62710
O          O       0.07744   0.40858   0.51518  -0.68898
O          O       0.10852   0.36913   0.67844  -0.71703
O          O       0.44844   0.58804   0.51874  -0.69183
O          O       0.60399   0.42565   0.17813  -0.74825
O          O       0.97535   0.75379   0.20434  -0.65119
O          O       0.22648   0.70598   0.50453  -0.64343
O          O       0.09569   0.56874   0.69679  -0.70547
O          O       0.35611   0.46757   0.54522  -0.67393
O          O       0.18723   0.69057   0.67405  -0.66839
O          O       0.97383   0.71910   0.04476  -0.69773
O          O       0.15467   0.58535   0.54145  -0.75289
O          O       0.67507   0.54617   0.21461  -0.62915
O          O       0.92374   0.59091   0.01538  -0.68926
O          O       0.89133   0.63188   0.17870  -0.71808
O          O       0.95640   0.91214   0.01933  -0.69310
O          O       0.10448   0.07576   0.67850  -0.75068
O          O       0.46886   0.74585   0.70481  -0.65290
O          O       0.72781   0.79504   0.00461  -0.64543
O          O       0.59910   0.93181   0.19826  -0.70760
O          O       0.86314   0.03195   0.04749  -0.67730
O          O       0.68929   0.80976   0.17385  -0.66543
O          O       0.47271   0.78068   0.54462  -0.69788
O          O       0.65719   0.91564   0.04134  -0.75145
O          O       0.17434   0.95508   0.71238  -0.63228
O          O       0.42336   0.90901   0.51529  -0.69005
O          O       0.39084   0.86883   0.67893  -0.71518
O          O       0.05322   0.08770   0.51897  -0.69380
O          O       0.89592   0.92520   0.17910  -0.74968
O          O       0.52566   0.25352   0.20407  -0.65025
O          O       0.27426   0.20636   0.50464  -0.64209
O          O       0.40466   0.06792   0.69799  -0.70622
O          O       0.14612   0.96745   0.54538  -0.67538
O          O       0.31399   0.18994   0.67396  -0.66730
O          O       0.52882   0.21865   0.04483  -0.69939
O          O       0.34766   0.08607   0.54154  -0.74939
O          O       0.82584   0.04544   0.21646  -0.63150
O          O       0.57840   0.09032   0.01579  -0.68724
O          O       0.60850   0.13128   0.17872  -0.71812

