data_crystal

_audit_creation_method 'AiiDA-DDEC plugin'

_cell_length_a         7.33154
_cell_length_b        22.27631
_cell_length_c        22.27631

_cell_angle_alpha     90.00000
_cell_angle_beta     90.00000
_cell_angle_gamma     90.00000

_symmetry_space_group_name_Hall 'P 1'
_symmetry_space_group_name_H-M  'P 1'

loop_
_symmetry_equiv_pos_as_xyz
 'x,y,z'

loop_
_atom_site_label
_atom_site_type_symbol
_atom_site_fract_x
_atom_site_fract_y
_atom_site_fract_z
_atom_site_charge
In         In      0.00000   0.75004   0.24996   1.58582
In         In      0.00000   0.24996   0.75004   1.58582
In         In      0.00000   0.24996   0.24996   1.58580
In         In      0.00000   0.75004   0.75004   1.58587
In         In      0.50000   0.75005   0.24995   1.57309
In         In      0.50000   0.24995   0.75005   1.57309
In         In      0.50000   0.24995   0.24995   1.57308
In         In      0.50000   0.75005   0.75005   1.57311
H          H       0.51163   0.73137   0.05602   0.12226
H          H       0.94178   0.82384   0.11115   0.11054
H          H       0.69809   0.87512   0.05633   0.10867
H          H       0.24822   0.81469   0.68522   0.43042
H          H       0.51163   0.26863   0.94398   0.12226
H          H       0.94178   0.17615   0.88885   0.11053
H          H       0.69809   0.12488   0.94367   0.10871
H          H       0.51163   0.44398   0.23136   0.12224
H          H       0.94180   0.38885   0.32385   0.11048
H          H       0.69809   0.44367   0.37512   0.10870
H          H       0.24821   0.81469   0.31478   0.43035
H          H       0.51163   0.55602   0.76864   0.12220
H          H       0.94180   0.61115   0.67615   0.11049
H          H       0.69809   0.55633   0.62488   0.10870
H          H       0.24822   0.18531   0.68522   0.43040
H          H       0.48837   0.76864   0.55602   0.12218
H          H       0.05821   0.67615   0.61115   0.11049
H          H       0.30191   0.62488   0.55633   0.10870
H          H       0.48837   0.23136   0.44398   0.12222
H          H       0.05821   0.32385   0.38885   0.11048
H          H       0.30191   0.37512   0.44367   0.10870
H          H       0.48837   0.05602   0.73137   0.12223
H          H       0.05823   0.11115   0.82384   0.11053
H          H       0.30192   0.05633   0.87512   0.10870
H          H       0.75179   0.68522   0.81469   0.43040
H          H       0.48837   0.94398   0.26863   0.12222
H          H       0.05823   0.88885   0.17615   0.11055
H          H       0.30192   0.94367   0.12488   0.10871
H          H       0.75179   0.31478   0.18531   0.43039
H          H       0.48838   0.76864   0.44398   0.12219
H          H       0.05821   0.67615   0.38885   0.11047
H          H       0.30191   0.62488   0.44367   0.10870
H          H       0.48838   0.23136   0.55602   0.12219
H          H       0.05821   0.32385   0.61115   0.11050
H          H       0.30191   0.37512   0.55633   0.10869
H          H       0.48837   0.05602   0.26863   0.12223
H          H       0.05823   0.11115   0.17615   0.11055
H          H       0.30192   0.05633   0.12488   0.10871
H          H       0.75179   0.68522   0.18531   0.43042
H          H       0.48837   0.94398   0.73137   0.12223
H          H       0.05823   0.88885   0.82384   0.11055
H          H       0.30192   0.94367   0.87512   0.10870
H          H       0.75179   0.31478   0.81469   0.43036
H          H       0.51164   0.73137   0.94398   0.12226
H          H       0.94178   0.82384   0.88885   0.11054
H          H       0.69809   0.87512   0.94367   0.10871
H          H       0.51164   0.26863   0.05602   0.12226
H          H       0.94178   0.17615   0.11115   0.11054
H          H       0.69809   0.12488   0.05633   0.10869
H          H       0.51163   0.44398   0.76864   0.12222
H          H       0.94180   0.38885   0.67615   0.11050
H          H       0.69809   0.44367   0.62488   0.10871
H          H       0.51163   0.55602   0.23136   0.12223
H          H       0.94180   0.61115   0.32385   0.11049
H          H       0.69809   0.55633   0.37512   0.10865
H          H       0.24822   0.18531   0.31478   0.43039
C          C       0.25264   0.76205   0.13061   0.61796
C          C       0.24730   0.77086   0.06368  -0.06906
C          C       0.39579   0.74935   0.03147  -0.09807
C          C       0.09493   0.79717   0.03248   0.04801
C          C       0.94585   0.82499   0.06265  -0.13514
C          C       0.80793   0.85352   0.03158  -0.07891
C          C       0.25264   0.23795   0.86939   0.61789
C          C       0.24730   0.22914   0.93631  -0.06907
C          C       0.39579   0.25065   0.96853  -0.09807
C          C       0.09493   0.20283   0.96752   0.04788
C          C       0.94585   0.17501   0.93735  -0.13496
C          C       0.80793   0.14648   0.96842  -0.07900
C          C       0.25265   0.36937   0.26206   0.61840
C          C       0.24729   0.43631   0.27085  -0.06920
C          C       0.39577   0.46853   0.24935  -0.09787
C          C       0.09494   0.46752   0.29717   0.04811
C          C       0.94585   0.43735   0.32499  -0.13531
C          C       0.80793   0.46842   0.35352  -0.07901
C          C       0.25265   0.63063   0.73794   0.61842
C          C       0.24729   0.56369   0.72915  -0.06924
C          C       0.39577   0.53147   0.75065  -0.09785
C          C       0.09494   0.53248   0.70283   0.04812
C          C       0.94585   0.56265   0.67501  -0.13538
C          C       0.80793   0.53158   0.64648  -0.07894
C          C       0.74735   0.73794   0.63063   0.61855
C          C       0.75271   0.72915   0.56369  -0.06922
C          C       0.60423   0.75065   0.53147  -0.09792
C          C       0.90507   0.70283   0.53248   0.04810
C          C       0.05415   0.67501   0.56265  -0.13538
C          C       0.19207   0.64648   0.53158  -0.07889
C          C       0.74735   0.26206   0.36937   0.61853
C          C       0.75271   0.27085   0.43631  -0.06927
C          C       0.60423   0.24935   0.46853  -0.09792
C          C       0.90507   0.29717   0.46752   0.04819
C          C       0.05415   0.32499   0.43735  -0.13528
C          C       0.19207   0.35352   0.46842  -0.07892
C          C       0.74736   0.13061   0.76205   0.61796
C          C       0.75271   0.06368   0.77086  -0.06913
C          C       0.60422   0.03147   0.74935  -0.09809
C          C       0.90507   0.03248   0.79717   0.04800
C          C       0.05415   0.06265   0.82499  -0.13503
C          C       0.19207   0.03158   0.85352  -0.07894
C          C       0.74736   0.86939   0.23795   0.61795
C          C       0.75271   0.93631   0.22914  -0.06911
C          C       0.60422   0.96853   0.25065  -0.09806
C          C       0.90507   0.96752   0.20283   0.04797
C          C       0.05415   0.93735   0.17501  -0.13506
C          C       0.19207   0.96842   0.14648  -0.07889
C          C       0.74735   0.73794   0.36937   0.61855
C          C       0.75271   0.72915   0.43631  -0.06927
C          C       0.60423   0.75065   0.46853  -0.09791
C          C       0.90507   0.70283   0.46752   0.04816
C          C       0.05415   0.67501   0.43735  -0.13528
C          C       0.19207   0.64648   0.46842  -0.07889
C          C       0.74735   0.26206   0.63063   0.61859
C          C       0.75271   0.27085   0.56369  -0.06929
C          C       0.60423   0.24935   0.53147  -0.09792
C          C       0.90507   0.29717   0.53248   0.04816
C          C       0.05415   0.32499   0.56265  -0.13541
C          C       0.19207   0.35352   0.53158  -0.07891
C          C       0.74736   0.13061   0.23795   0.61789
C          C       0.75271   0.06368   0.22914  -0.06900
C          C       0.60422   0.03147   0.25065  -0.09813
C          C       0.90507   0.03248   0.20283   0.04797
C          C       0.05415   0.06265   0.17501  -0.13508
C          C       0.19207   0.03158   0.14648  -0.07890
C          C       0.74736   0.86939   0.76205   0.61797
C          C       0.75271   0.93631   0.77086  -0.06909
C          C       0.60422   0.96853   0.74935  -0.09807
C          C       0.90507   0.96752   0.79717   0.04797
C          C       0.05415   0.93735   0.82499  -0.13502
C          C       0.19207   0.96842   0.85352  -0.07891
C          C       0.25264   0.76205   0.86939   0.61794
C          C       0.24730   0.77086   0.93631  -0.06904
C          C       0.39579   0.74935   0.96853  -0.09805
C          C       0.09493   0.79717   0.96752   0.04787
C          C       0.94585   0.82499   0.93735  -0.13495
C          C       0.80793   0.85352   0.96842  -0.07902
C          C       0.25264   0.23795   0.13061   0.61784
C          C       0.24730   0.22914   0.06368  -0.06895
C          C       0.39579   0.25065   0.03147  -0.09808
C          C       0.09493   0.20283   0.03248   0.04796
C          C       0.94585   0.17501   0.06265  -0.13507
C          C       0.80793   0.14648   0.03158  -0.07896
C          C       0.25265   0.36937   0.73794   0.61843
C          C       0.24729   0.43631   0.72915  -0.06923
C          C       0.39577   0.46853   0.75065  -0.09784
C          C       0.09494   0.46752   0.70283   0.04814
C          C       0.94585   0.43735   0.67501  -0.13538
C          C       0.80793   0.46842   0.64648  -0.07895
C          C       0.25265   0.63063   0.26205   0.61841
C          C       0.24729   0.56369   0.27085  -0.06924
C          C       0.39577   0.53147   0.24935  -0.09786
C          C       0.09494   0.53248   0.29717   0.04817
C          C       0.94585   0.56265   0.32499  -0.13545
C          C       0.80793   0.53158   0.35352  -0.07887
O          O       0.40984   0.75759   0.15482  -0.58751
O          O       0.09941   0.75733   0.15744  -0.58871
O          O       0.40984   0.24241   0.84518  -0.58746
O          O       0.09941   0.24267   0.84256  -0.58871
O          O       0.40986   0.34515   0.25760  -0.58882
O          O       0.09941   0.34253   0.25735  -0.58989
O          O       0.40986   0.65485   0.74240  -0.58888
O          O       0.09941   0.65747   0.74265  -0.58990
O          O       0.59014   0.74240   0.65485  -0.58899
O          O       0.90060   0.74265   0.65747  -0.58988
O          O       0.59014   0.25760   0.34515  -0.58897
O          O       0.90060   0.25735   0.34253  -0.58985
O          O       0.59017   0.15482   0.75759  -0.58761
O          O       0.90059   0.15744   0.75733  -0.58864
O          O       0.59017   0.84518   0.24241  -0.58761
O          O       0.90059   0.84256   0.24267  -0.58862
O          O       0.59014   0.74240   0.34515  -0.58897
O          O       0.90059   0.74265   0.34253  -0.58985
O          O       0.59014   0.25760   0.65485  -0.58902
O          O       0.90059   0.25735   0.65747  -0.58986
O          O       0.59017   0.15482   0.24241  -0.58760
O          O       0.90060   0.15744   0.24267  -0.58864
O          O       0.59017   0.84518   0.75759  -0.58760
O          O       0.90060   0.84256   0.75733  -0.58866
O          O       0.40984   0.75759   0.84518  -0.58749
O          O       0.09941   0.75733   0.84256  -0.58875
O          O       0.40984   0.24241   0.15482  -0.58749
O          O       0.09941   0.24267   0.15744  -0.58868
O          O       0.40986   0.34515   0.74240  -0.58885
O          O       0.09941   0.34253   0.74265  -0.58989
O          O       0.40986   0.65485   0.25760  -0.58886
O          O       0.09941   0.65747   0.25735  -0.58986
O          O       0.24895   0.78435   0.28356  -0.90767
O          O       0.24895   0.21565   0.71644  -0.90768
O          O       0.24895   0.21565   0.28356  -0.90769
O          O       0.24895   0.78435   0.71644  -0.90774
O          O       0.75105   0.71644   0.78435  -0.90769
O          O       0.75105   0.28356   0.21565  -0.90766
O          O       0.75105   0.28356   0.78435  -0.90765
O          O       0.75105   0.71644   0.21565  -0.90769

