data_crystal

_audit_creation_method 'AiiDA-DDEC plugin'

_cell_length_a        12.83056
_cell_length_b        13.69944
_cell_length_c        16.49012

_cell_angle_alpha     80.46314
_cell_angle_beta     77.98481
_cell_angle_gamma     80.87800

_symmetry_space_group_name_Hall 'P 1'
_symmetry_space_group_name_H-M  'P 1'

loop_
_symmetry_equiv_pos_as_xyz
 'x,y,z'

loop_
_atom_site_label
_atom_site_type_symbol
_atom_site_fract_x
_atom_site_fract_y
_atom_site_fract_z
_atom_site_charge
Cd         Cd      0.47288   0.53001   0.73415   1.02713
Cd         Cd      0.72512   0.24399   0.23895   1.02786
Cd         Cd      0.71095   0.30084   0.75548   1.14533
Cd         Cd      0.52712   0.47000   0.26584   1.02726
Cd         Cd      0.27488   0.75602   0.76105   1.02790
Cd         Cd      0.28905   0.69917   0.24452   1.14539
H          H       0.78261   0.67804   0.65358   0.11759
H          H       0.95284   0.75005   0.65346   0.11209
H          H       0.99071   0.55823   0.88061   0.12022
H          H       0.71969   0.55307   0.97806   0.12914
H          H       0.70495   0.24036   0.06116   0.11999
H          H       0.83581   0.19974   0.93322   0.11858
H          H       0.53292   0.71577   0.45258   0.13478
H          H       0.14789   0.84149   0.45298   0.11740
H          H       0.20338   0.73174   0.57799   0.12891
H          H       0.29401   0.00771   0.42349   0.14027
H          H       0.33394   0.10794   0.34418   0.14205
H          H       0.19586   0.10696   0.39226   0.13118
H          H       0.12944   0.09678   0.25362   0.13607
H          H       0.26080   0.13115   0.21369   0.13677
H          H       0.22332   0.02303   0.18388   0.14655
H          H       0.67978   0.76187   0.14385   0.11541
H          H       0.72742   0.93730   0.12800   0.12251
H          H       0.49850   0.98899   0.35035   0.12202
H          H       0.06480   0.31693   0.66970   0.14110
H          H       0.17410   0.34788   0.70960   0.14469
H          H       0.13966   0.22389   0.73211   0.12849
H          H       0.14003   0.28963   0.88142   0.12706
H          H       0.12671   0.41862   0.83934   0.14661
H          H       0.02178   0.36965   0.91814   0.13555
H          H       0.21739   0.32197   0.34642   0.11748
H          H       0.04716   0.24996   0.34654   0.11197
H          H       0.00929   0.44178   0.11939   0.12034
H          H       0.28031   0.44694   0.02194   0.12892
H          H       0.29504   0.75965   0.93884   0.12013
H          H       0.16419   0.80026   0.06678   0.11872
H          H       0.46708   0.28423   0.54741   0.13490
H          H       0.85211   0.15852   0.54701   0.11723
H          H       0.79662   0.26826   0.42200   0.12894
H          H       0.70599   0.99230   0.57651   0.14041
H          H       0.66606   0.89207   0.65581   0.14188
H          H       0.80413   0.89305   0.60774   0.13103
H          H       0.87056   0.90323   0.74638   0.13594
H          H       0.73919   0.86885   0.78631   0.13669
H          H       0.77668   0.97698   0.81611   0.14657
H          H       0.32022   0.23813   0.85615   0.11556
H          H       0.27258   0.06270   0.87200   0.12238
H          H       0.50150   0.01102   0.64964   0.12198
H          H       0.93520   0.68308   0.33030   0.14100
H          H       0.82590   0.65213   0.29039   0.14460
H          H       0.86034   0.77612   0.26789   0.12873
H          H       0.85997   0.71038   0.11858   0.12723
H          H       0.87329   0.58139   0.16066   0.14652
H          H       0.97822   0.63035   0.08186   0.13552
C          C       0.69444   0.53615   0.76029   0.58550
C          C       0.79617   0.57420   0.76420  -0.07437
C          C       0.83062   0.65155   0.70186  -0.10180
C          C       0.92292   0.69213   0.70236  -0.12042
C          C       0.97999   0.65840   0.76759  -0.00751
C          C       0.94516   0.58219   0.83052  -0.15781
C          C       0.85509   0.53726   0.82884   0.04580
C          C       0.07951   0.70206   0.76837   0.54807
C          C       0.82028   0.45457   0.89543   0.05686
C          C       0.74759   0.47605   0.96788  -0.12517
C          C       0.70674   0.39985   0.02805  -0.00226
C          C       0.73710   0.30001   0.01507  -0.08302
C          C       0.81058   0.27721   0.94341  -0.13368
C          C       0.85371   0.35365   0.88459  -0.08635
C          C       0.63286   0.42759   0.10623   0.57222
C          C       0.92716   0.32572   0.80683   0.41370
C          C       0.40700   0.64709   0.59406   0.57121
C          C       0.37156   0.71640   0.52165  -0.00475
C          C       0.44909   0.74505   0.45207  -0.12444
C          C       0.42028   0.81043   0.38340   0.04153
C          C       0.31050   0.84421   0.38408  -0.10148
C          C       0.23234   0.81453   0.45334  -0.12737
C          C       0.26284   0.75219   0.52266  -0.08986
C          C       0.27504   0.90601   0.30876   0.41513
C          C       0.27076   0.05982   0.37057  -0.28818
C          C       0.21448   0.06785   0.23445  -0.28078
C          C       0.54379   0.67285   0.26651   0.58797
C          C       0.56041   0.77972   0.25445  -0.07676
C          C       0.63958   0.81337   0.18765  -0.10835
C          C       0.66609   0.90957   0.17897  -0.10691
C          C       0.61595   0.97205   0.23896  -0.00774
C          C       0.53466   0.93956   0.30402  -0.15535
C          C       0.50448   0.84413   0.31184   0.03852
C          C       0.65333   0.07085   0.23638   0.54618
C          C       0.10726   0.30324   0.72228  -0.28001
C          C       0.08281   0.35399   0.86327  -0.28936
C          C       0.30555   0.46386   0.23971   0.58555
C          C       0.20383   0.42581   0.23580  -0.07432
C          C       0.16938   0.34846   0.29814  -0.10185
C          C       0.07708   0.30788   0.29763  -0.12053
C          C       0.02001   0.34160   0.23241  -0.00750
C          C       0.05484   0.41781   0.16948  -0.15772
C          C       0.14491   0.46275   0.17116   0.04586
C          C       0.92049   0.29795   0.23162   0.54804
C          C       0.17972   0.54543   0.10456   0.05679
C          C       0.25241   0.52396   0.03212  -0.12532
C          C       0.29326   0.60016   0.97195  -0.00211
C          C       0.26289   0.69999   0.98493  -0.08298
C          C       0.18942   0.72279   0.05659  -0.13353
C          C       0.14628   0.64636   0.11541  -0.08647
C          C       0.36714   0.57242   0.89377   0.57210
C          C       0.07284   0.67429   0.19317   0.41378
C          C       0.59300   0.35291   0.40594   0.57114
C          C       0.62843   0.28361   0.47835  -0.00493
C          C       0.55091   0.25496   0.54793  -0.12438
C          C       0.57972   0.18958   0.61660   0.04161
C          C       0.68950   0.15580   0.61592  -0.10161
C          C       0.76766   0.18548   0.54666  -0.12734
C          C       0.73715   0.24782   0.47734  -0.08969
C          C       0.72496   0.09399   0.69124   0.41530
C          C       0.72924   0.94018   0.62943  -0.28801
C          C       0.78551   0.93216   0.76555  -0.28070
C          C       0.45621   0.32715   0.73349   0.58780
C          C       0.43959   0.22029   0.74555  -0.07673
C          C       0.36042   0.18664   0.81235  -0.10851
C          C       0.33391   0.09044   0.82102  -0.10667
C          C       0.38405   0.02796   0.76104  -0.00803
C          C       0.46533   0.06045   0.69597  -0.15536
C          C       0.49552   0.15587   0.68816   0.03855
C          C       0.34667   0.92916   0.76362   0.54651
C          C       0.89274   0.69677   0.27772  -0.28000
C          C       0.91718   0.64602   0.13672  -0.28934
N          N       0.03270   0.33078   0.79772   0.02191
N          N       0.25433   0.00553   0.30575   0.02317
N          N       0.96730   0.66923   0.20228   0.02189
N          N       0.74567   0.99448   0.69424   0.02288
O          O       0.89015   0.29540   0.75042  -0.53830
O          O       0.67693   0.44845   0.79747  -0.61824
O          O       0.62897   0.59515   0.72185  -0.51343
O          O       0.61411   0.12022   0.29759  -0.56060
O          O       0.72479   0.10021   0.17472  -0.56869
O          O       0.49748   0.59503   0.58347  -0.51709
O          O       0.34182   0.64255   0.66578  -0.60343
O          O       0.59809   0.51774   0.11255  -0.52948
O          O       0.60825   0.35628   0.16651  -0.60499
O          O       0.10814   0.77191   0.71025  -0.57907
O          O       0.13270   0.66602   0.82631  -0.56167
O          O       0.44754   0.64703   0.28175  -0.62422
O          O       0.62508   0.60816   0.26254  -0.49863
O          O       0.26164   0.86412   0.24868  -0.53158
O          O       0.10985   0.70460   0.24958  -0.53834
O          O       0.32307   0.55156   0.20253  -0.61813
O          O       0.37102   0.40485   0.27815  -0.51375
O          O       0.38589   0.87978   0.70241  -0.56069
O          O       0.27521   0.89979   0.82528  -0.56891
O          O       0.50252   0.40497   0.41653  -0.51686
O          O       0.65818   0.35745   0.33421  -0.60336
O          O       0.40190   0.48226   0.88745  -0.52983
O          O       0.39174   0.64373   0.83349  -0.60464
O          O       0.89186   0.22810   0.28975  -0.57940
O          O       0.86730   0.33399   0.17369  -0.56134
O          O       0.55246   0.35297   0.71825  -0.62418
O          O       0.37492   0.39185   0.73746  -0.49835
O          O       0.73836   0.13588   0.75132  -0.53158

