data_crystal

_audit_creation_method 'AiiDA-DDEC plugin'

_cell_length_a        11.20870
_cell_length_b        13.43822
_cell_length_c        28.07099

_cell_angle_alpha     100.05300
_cell_angle_beta     90.01225
_cell_angle_gamma     89.87893

_symmetry_space_group_name_Hall 'P 1'
_symmetry_space_group_name_H-M  'P 1'

loop_
_symmetry_equiv_pos_as_xyz
 'x,y,z'

loop_
_atom_site_label
_atom_site_type_symbol
_atom_site_fract_x
_atom_site_fract_y
_atom_site_fract_z
_atom_site_charge
Mg         Mg      0.18715   0.37637   0.85391   1.45978
Mg         Mg      0.46005   0.53763   0.83076   1.59748
Mg         Mg      0.28698   0.29983   0.14361   1.43990
Mg         Mg      0.68649   0.12027   0.64611   1.45740
Mg         Mg      0.95910   0.96102   0.66896   1.59335
Mg         Mg      0.78667   0.20020   0.35647   1.43900
Mg         Mg      0.81285   0.62363   0.14609   1.45974
Mg         Mg      0.53995   0.46237   0.16924   1.59741
Mg         Mg      0.71301   0.70017   0.85639   1.43978
Mg         Mg      0.31351   0.87973   0.35389   1.45729
Mg         Mg      0.04090   0.03898   0.33104   1.59336
Mg         Mg      0.21332   0.79980   0.64353   1.43892
H          H       0.54629   0.31621   0.70895   0.11083
H          H       0.19625   0.19691   0.72698   0.13361
H          H       0.44826   0.04037   0.62557   0.10702
H          H       0.32178   0.30628   0.98704   0.14118
H          H       0.62843   0.42972   0.92588   0.09147
H          H       0.65286   0.36663   0.06488   0.09402
H          H       0.95961   0.64760   0.88848   0.11269
H          H       0.21019   0.68808   0.77752   0.13594
H          H       0.85723   0.81757   0.78473   0.10853
H          H       0.04477   0.18066   0.79118   0.11206
H          H       0.69644   0.30382   0.77216   0.13301
H          H       0.94963   0.45896   0.87320   0.10645
H          H       0.81967   0.19333   0.51272   0.13924
H          H       0.12498   0.06823   0.57461   0.09074
H          H       0.15310   0.13452   0.43633   0.09486
H          H       0.46020   0.85132   0.61171   0.11249
H          H       0.70946   0.80762   0.72274   0.13530
H          H       0.35569   0.68151   0.71508   0.10938
H          H       0.45370   0.68379   0.29106   0.11103
H          H       0.80374   0.80309   0.27303   0.13352
H          H       0.55173   0.95963   0.37443   0.10711
H          H       0.67822   0.69372   0.01296   0.14106
H          H       0.37156   0.57028   0.07412   0.09168
H          H       0.34713   0.63337   0.93512   0.09403
H          H       0.04038   0.35240   0.11153   0.11254
H          H       0.78980   0.31192   0.22249   0.13609
H          H       0.14276   0.18242   0.21527   0.10842
H          H       0.95522   0.81934   0.20882   0.11218
H          H       0.30355   0.69618   0.22784   0.13293
H          H       0.05037   0.54104   0.12681   0.10642
H          H       0.18033   0.80667   0.48728   0.13908
H          H       0.87501   0.93177   0.42540   0.09074
H          H       0.84689   0.86548   0.56367   0.09498
H          H       0.53979   0.14868   0.38829   0.11257
H          H       0.29054   0.19238   0.27726   0.13533
H          H       0.64430   0.31849   0.28492   0.10928
C          C       0.47769   0.25926   0.69869   0.10192
C          C       0.36665   0.26938   0.72182  -0.07420
C          C       0.28234   0.19300   0.70891  -0.03542
C          C       0.31076   0.10947   0.67403  -0.07010
C          C       0.42282   0.10574   0.65221   0.08490
C          C       0.33978   0.35385   0.76336   0.64214
C          C       0.18376   0.59058   0.85319   0.63555
C          C       0.39493   0.37978   0.90721   0.63781
C          C       0.42150   0.30709   0.07506   0.60699
C          C       0.48033   0.33252   0.03140  -0.08599
C          C       0.41405   0.33151   0.98921  -0.05043
C          C       0.46675   0.36838   0.95073  -0.09138
C          C       0.58598   0.40018   0.95544   0.08782
C          C       0.59931   0.36555   0.03239   0.08838
C          C       0.22859   0.02017   0.66455   0.62039
C          C       0.05819   0.80166   0.72990   0.63256
C          C       0.03694   0.75955   0.77560  -0.07434
C          C       0.98413   0.68012   0.85702   0.09585
C          C       0.09663   0.66179   0.83601  -0.07808
C          C       0.12338   0.70262   0.79472  -0.03943
C          C       0.92665   0.77455   0.79915   0.09634
C          C       0.97703   0.23882   0.80103   0.10407
C          C       0.86617   0.22973   0.77768  -0.07880
C          C       0.78254   0.30712   0.79021  -0.03353
C          C       0.81176   0.39074   0.82488  -0.07067
C          C       0.92357   0.39346   0.84685   0.08532
C          C       0.83927   0.14439   0.73655   0.64243
C          C       0.68453   0.90575   0.64708   0.63445
C          C       0.88957   0.11859   0.59240   0.63260
C          C       0.92144   0.19315   0.42516   0.60809
C          C       0.97946   0.16768   0.46902  -0.08877
C          C       0.91203   0.16804   0.51087  -0.04801
C          C       0.96350   0.13039   0.54944  -0.08613
C          C       0.08299   0.09858   0.54514   0.08593
C          C       0.09862   0.13486   0.46851   0.09128
C          C       0.73099   0.48129   0.83429   0.61867
C          C       0.55597   0.69807   0.77042   0.63419
C          C       0.53567   0.73840   0.72435  -0.07519
C          C       0.48430   0.81792   0.64298   0.09348
C          C       0.59699   0.83489   0.66394  -0.07677
C          C       0.62299   0.79396   0.70522  -0.03979
C          C       0.42564   0.72380   0.70070   0.09464
C          C       0.52231   0.74074   0.30131   0.10178
C          C       0.63334   0.73062   0.27818  -0.07431
C          C       0.71766   0.80700   0.29109  -0.03545
C          C       0.68924   0.89053   0.32597  -0.07012
C          C       0.57717   0.89426   0.34779   0.08479
C          C       0.66021   0.64614   0.23664   0.64230
C          C       0.81623   0.40942   0.14681   0.63561
C          C       0.60506   0.62021   0.09279   0.63786
C          C       0.57849   0.69291   0.92495   0.60728
C          C       0.51967   0.66748   0.96860  -0.08606
C          C       0.58595   0.66849   0.01079  -0.05051
C          C       0.53324   0.63161   0.04927  -0.09133
C          C       0.41402   0.59982   0.04456   0.08775
C          C       0.40068   0.63445   0.96761   0.08842
C          C       0.77141   0.97983   0.33545   0.62053
C          C       0.94181   0.19834   0.27010   0.63256
C          C       0.96306   0.24045   0.22440  -0.07444
C          C       0.01587   0.31988   0.14299   0.09593
C          C       0.90337   0.33821   0.16399  -0.07824
C          C       0.87661   0.29738   0.20528  -0.03920
C          C       0.07334   0.22545   0.20085   0.09649
C          C       0.02296   0.76118   0.19897   0.10399
C          C       0.13383   0.77027   0.22232  -0.07882
C          C       0.21746   0.69288   0.20980  -0.03355
C          C       0.18824   0.60926   0.17512  -0.07076
C          C       0.07643   0.60654   0.15315   0.08536
C          C       0.16072   0.85561   0.26345   0.64248
C          C       0.31546   0.09425   0.35292   0.63455
C          C       0.11043   0.88141   0.40760   0.63278
C          C       0.07855   0.80685   0.57484   0.60818
C          C       0.02054   0.83232   0.53098  -0.08883
C          C       0.08797   0.83196   0.48913  -0.04800
C          C       0.03649   0.86961   0.45056  -0.08604
C          C       0.91700   0.90142   0.45486   0.08562
C          C       0.90138   0.86513   0.53149   0.09133
C          C       0.26901   0.51871   0.16571   0.61870
C          C       0.44403   0.30193   0.22958   0.63434
C          C       0.46432   0.26160   0.27565  -0.07537
C          C       0.51570   0.18208   0.35702   0.09345
C          C       0.40301   0.16511   0.33606  -0.07662
C          C       0.37701   0.20603   0.29478  -0.03963
C          C       0.57436   0.27620   0.29930   0.09457
N          N       0.50634   0.17838   0.66435  -0.37838
N          N       0.89946   0.73540   0.83902  -0.37057
N          N       0.65300   0.39707   0.99490  -0.27419
N          N       0.00637   0.31971   0.83517  -0.38072
N          N       0.39910   0.76332   0.66085  -0.36900
N          N       0.15120   0.10261   0.50609  -0.27478
N          N       0.49366   0.82162   0.33565  -0.37803
N          N       0.10053   0.26460   0.16098  -0.37088
N          N       0.34699   0.60293   0.00511  -0.27401
N          N       0.99362   0.68029   0.16483  -0.38057
N          N       0.60090   0.23668   0.33915  -0.36917
N          N       0.84880   0.89739   0.49391  -0.27443
O          O       0.29222   0.60152   0.84430  -0.66346
O          O       0.13926   0.52021   0.87347  -0.69940
O          O       0.43511   0.43444   0.87848  -0.71404
O          O       0.29334   0.33402   0.90231  -0.69893
O          O       0.40733   0.42914   0.77107  -0.63714
O          O       0.24730   0.33852   0.78812  -0.73547
O          O       0.46168   0.34452   0.11740  -0.75690
O          O       0.32718   0.25294   0.07138  -0.63721
O          O       0.27280   0.93913   0.64028  -0.68965
O          O       0.12573   0.03026   0.68289  -0.65763
O          O       0.15145   0.76853   0.70544  -0.70963
O          O       0.98311   0.86422   0.71942  -0.63969
O          O       0.79310   0.89388   0.65583  -0.65934
O          O       0.63985   0.97654   0.62710  -0.70101
O          O       0.92633   0.06194   0.62098  -0.71534
O          O       0.78874   0.16596   0.59737  -0.69502
O          O       0.90941   0.07051   0.72883  -0.63457
O          O       0.74519   0.15702   0.71215  -0.73511
O          O       0.96347   0.15651   0.38299  -0.75443
O          O       0.82603   0.24636   0.42862  -0.63863
O          O       0.77533   0.56088   0.85974  -0.68520
O          O       0.62935   0.47400   0.81482  -0.65966
O          O       0.64900   0.73173   0.79488  -0.71087
O          O       0.48067   0.63611   0.78099  -0.63843
O          O       0.70778   0.39848   0.15570  -0.66330
O          O       0.86073   0.47979   0.12654  -0.69959
O          O       0.56488   0.56556   0.12153  -0.71384
O          O       0.70665   0.66598   0.09769  -0.69917
O          O       0.59267   0.57086   0.22893  -0.63703
O          O       0.75269   0.66148   0.21188  -0.73574
O          O       0.53831   0.65548   0.88260  -0.75698
O          O       0.67281   0.74706   0.92863  -0.63744
O          O       0.72720   0.06087   0.35972  -0.68951
O          O       0.87427   0.96974   0.31711  -0.65796
O          O       0.84854   0.23146   0.29456  -0.70944
O          O       0.01688   0.13578   0.28058  -0.63977
O          O       0.20689   0.10612   0.34417  -0.65924
O          O       0.36015   0.02346   0.37291  -0.70106
O          O       0.07366   0.93806   0.37902  -0.71540
O          O       0.21126   0.83404   0.40263  -0.69517
O          O       0.09059   0.92949   0.27117  -0.63452
O          O       0.25480   0.84298   0.28785  -0.73521
O          O       0.03653   0.84349   0.61701  -0.75430
O          O       0.17396   0.75364   0.57138  -0.63877
O          O       0.22466   0.43912   0.14027  -0.68517
O          O       0.37065   0.52600   0.18518  -0.65973
O          O       0.35100   0.26827   0.20512  -0.71080
O          O       0.51932   0.36389   0.21901  -0.63867

