data_crystal

_audit_creation_method 'AiiDA-DDEC plugin'

_cell_length_a         9.17154
_cell_length_b        14.22044
_cell_length_c        20.38076

_cell_angle_alpha     97.63671
_cell_angle_beta     101.16816
_cell_angle_gamma     106.83832

_symmetry_space_group_name_Hall 'P 1'
_symmetry_space_group_name_H-M  'P 1'

loop_
_symmetry_equiv_pos_as_xyz
 'x,y,z'

loop_
_atom_site_label
_atom_site_type_symbol
_atom_site_fract_x
_atom_site_fract_y
_atom_site_fract_z
_atom_site_charge
Mn         Mn      0.00949   0.56022   0.08024   1.10184
Mn         Mn      0.48374   0.93714   0.41805   1.10414
Mn         Mn      0.24685   0.74514   0.24832   1.10649
Mn         Mn      0.98928   0.43918   0.92024   1.09989
Mn         Mn      0.50600   0.06248   0.57996   1.10358
Mn         Mn      0.75108   0.25446   0.75125   1.10978
Mn         Mn      0.49871   0.49947   0.00035   1.19667
Mn         Mn      0.99567   0.00118   0.50030   1.20075
H          H       0.54726   0.66109   0.38726   0.12528
H          H       0.55282   0.48793   0.39030   0.11696
H          H       0.87283   0.59414   0.58921   0.10866
H          H       0.86923   0.76816   0.58531   0.11684
H          H       0.79924   0.23317   0.39980   0.11662
H          H       0.70140   0.43408   0.59243   0.12265
H          H       0.93740   0.56108   0.43683   0.10575
H          H       0.66807   0.28056   0.29818   0.11106
H          H       0.75222   0.35510   0.20224   0.10252
H          H      -0.00131   0.63676   0.33953   0.10930
H          H       0.80168   0.06645   0.90627   0.12161
H          H       0.68310   0.26019   0.09603   0.11581
H          H       0.81111   0.21267   0.19770   0.10895
H          H       0.72956   0.13537   0.29305   0.10250
H          H       0.49963   0.85256   0.15543   0.11201
H          H       0.55592   0.93017   0.05841   0.10467
H          H       0.93908   0.00991   0.10776   0.11673
H          H       0.94514   0.83654   0.11065   0.12481
H          H       0.63177   0.73023   0.91089   0.11758
H          H       0.62731   0.90436   0.90679   0.11038
H          H       0.45038   0.34251   0.61429   0.12524
H          H       0.44437   0.51575   0.61055   0.11653
H          H       0.12309   0.40735   0.41187   0.10965
H          H       0.12686   0.23335   0.41699   0.11853
H          H       0.19252   0.76814   0.59913   0.11778
H          H       0.29544   0.56705   0.40797   0.12154
H          H       0.05510   0.44113   0.56213   0.10573
H          H       0.32976   0.71899   0.70223   0.11040
H          H       0.25048   0.64214   0.79812   0.10300
H          H      -0.00286   0.36296   0.65887   0.11075
H          H       0.19558   0.93317   0.09314   0.12179
H          H       0.31519   0.73896   0.90394   0.11557
H          H       0.18627   0.78644   0.80236   0.10948
H          H       0.26808   0.86308   0.70680   0.10157
H          H       0.50124   0.14584   0.84446   0.11085
H          H       0.44423   0.06818   0.94155   0.10450
H          H       0.06070   0.98932   0.89115   0.11769
H          H       0.05322   0.16239   0.88785   0.12623
H          H       0.36472   0.26925   0.08821   0.11729
H          H       0.36927   0.09543   0.09264   0.11040
C          C       0.70834   0.82871   0.48134   0.60953
C          C       0.70839   0.72543   0.48602  -0.05906
C          C       0.61781   0.64568   0.43133  -0.07805
C          C       0.62086   0.54902   0.43324  -0.13096
C          C       0.71447   0.52961   0.48968   0.07806
C          C       0.79974   0.60883   0.54551  -0.14405
C          C       0.79876   0.70614   0.54334  -0.07866
C          C       0.72968   0.42892   0.49000   0.02312
C          C       0.76095   0.37192   0.43478   0.03930
C          C       0.77063   0.27634   0.44069  -0.15003
C          C       0.75126   0.23572   0.49861  -0.03557
C          C       0.72569   0.29428   0.55407  -0.07059
C          C       0.71735   0.38952   0.54853  -0.12230
C          C       0.71813   0.26484   0.62078   0.56194
C          C       0.75740   0.13082   0.49681   0.64114
C          C       0.89294   0.51556   0.38557  -0.12716
C          C       0.79866   0.41463   0.37519   0.06812
C          C       0.74583   0.35770   0.30800  -0.14810
C          C       0.79103   0.39959   0.25386  -0.09602
C          C       0.88593   0.50017   0.26500  -0.04437
C          C       0.93109   0.55809   0.33122  -0.07869
C          C       0.94789   0.54610   0.21012   0.59475
C          C       0.73326   0.36588   0.00050   0.64130
C          C       0.74042   0.26122  -0.00098  -0.03418
C          C       0.77206   0.20478   0.94435  -0.06993
C          C       0.78104   0.10958   0.94953  -0.12176
C          C       0.76413   0.06845   0.00706   0.02161
C          C       0.72664   0.12301   0.06144   0.04041
C          C       0.71584   0.21854   0.05579  -0.14746
C          C       0.78320   0.23539   0.87822   0.55981
C          C       0.68740   0.07819   0.12018   0.06495
C          C       0.73683   0.13467   0.18748  -0.14635
C          C       0.69330   0.09138   0.24134  -0.09779
C          C       0.60369   0.98965   0.22987  -0.04537
C          C       0.56230   0.93215   0.16372  -0.08173
C          C       0.59824   0.97605   0.10954  -0.12420
C          C       0.78140   0.96832   0.00730   0.08164
C          C       0.87336   0.94910   0.06433  -0.13015
C          C       0.87664   0.85258   0.06628  -0.07841
C          C       0.78808   0.77319   0.01120  -0.05522
C          C       0.70020   0.79230   0.95314  -0.08258
C          C       0.69898   0.88951   0.95086  -0.14327
C          C       0.78656   0.67018   0.01687   0.60840
C          C       0.54312   0.94193   0.28441   0.59921
C          C       0.28613   0.17469   0.52161   0.60969
C          C       0.28804   0.27774   0.51601  -0.05973
C          C       0.37960   0.35780   0.57024  -0.07838
C          C       0.37650   0.45429   0.56783  -0.13156
C          C       0.28225   0.47282   0.51119   0.08178
C          C       0.19668   0.39321   0.45565  -0.14447
C          C       0.19754   0.29610   0.45841  -0.07943
C          C       0.26559   0.57295   0.51020   0.02072
C          C       0.23254   0.62975   0.56490   0.04221
C          C       0.22132   0.72485   0.55835  -0.15110
C          C       0.23973   0.76471   0.49998  -0.03391
C          C       0.26709   0.70605   0.44503  -0.07169
C          C       0.27766   0.61156   0.45141  -0.12127
C          C       0.27582   0.73420   0.37801   0.56115
C          C       0.23213   0.86922   0.50064   0.63950
C          C       0.10125   0.48557   0.61365  -0.12700
C          C       0.19592   0.58650   0.62450   0.06589
C          C       0.25158   0.64196   0.69204  -0.14727
C          C       0.20915   0.59868   0.74616  -0.09616
C          C       0.11412   0.49804   0.73457  -0.04569
C          C       0.06535   0.44162   0.66778  -0.08074
C          C       0.05472   0.45076   0.78957   0.59532
C          C       0.26485   0.63359   0.00045   0.64413
C          C       0.25705   0.73805   0.00087  -0.03397
C          C       0.22562   0.79499   0.05535  -0.07021
C          C       0.21674   0.89015   0.05000  -0.12220
C          C       0.23393   0.93104   0.99242   0.02160
C          C       0.27171   0.87612   0.93833   0.04054
C          C       0.28203   0.78052   0.94407  -0.14797
C          C       0.21525   0.76489   0.12163   0.55989
C          C       0.31163   0.92067   0.87966   0.06488
C          C       0.26146   0.86423   0.81238  -0.14739
C          C       0.30487   0.90740   0.75843  -0.09681
C          C       0.39477   0.00913   0.76978  -0.04500
C          C       0.43766   0.06639   0.83610  -0.08259
C          C       0.40172   0.02259   0.89033  -0.12433
C          C       0.21674   0.03115   0.99185   0.08237
C          C       0.12554   0.05030   0.93456  -0.13235
C          C       0.12179   0.14671   0.93239  -0.07766
C          C       0.20962   0.22620   0.98759  -0.05787
C          C       0.29688   0.20719   0.04586  -0.08100
C          C       0.29822   0.11006   0.04830  -0.14359
C          C       0.21080   0.32913   0.98196   0.60685
C          C       0.45341   0.05741   0.71494   0.59845
O          O       0.60088   0.83783   0.43502  -0.57184
O          O       0.81625   0.90405   0.52284  -0.60615
O          O       0.70966   0.32789   0.66937  -0.52614
O          O       0.72644   0.17792   0.63018  -0.59772
O          O       0.62869   0.06248   0.49740  -0.61862
O          O       0.88197   0.11422   0.49006  -0.56289
O          O       0.01428   0.64086   0.22120  -0.58988
O          O       0.93325   0.48721   0.15349  -0.57650
O          O       0.60779   0.38181   0.00657  -0.56094
O          O       0.86195   0.43460   0.00000  -0.62172
O          O       0.76885   0.32101   0.86778  -0.60139
O          O       0.79999   0.17530   0.83044  -0.51904
O          O       0.67589   0.59509   0.97647  -0.60386
O          O       0.89456   0.66122   0.06298  -0.57179
O          O       0.47972   0.84700   0.27272  -0.58686
O          O       0.55589   0.00042   0.34091  -0.58009
O          O       0.39274   0.16557   0.56832  -0.57106
O          O       0.17731   0.09961   0.48041  -0.60727
O          O       0.28935   0.67156   0.33065  -0.52414
O          O       0.26418   0.81986   0.36691  -0.59907
O          O       0.36105   0.93761   0.49995  -0.62063
O          O       0.10696   0.88567   0.50652  -0.55989
O          O       0.98534   0.35631   0.77710  -0.58715
O          O       0.07361   0.50893   0.84713  -0.57769
O          O       0.39202   0.61850   0.99671  -0.55799
O          O       0.13552   0.56442   0.00002  -0.62453
O          O       0.23018   0.67948   0.13219  -0.60041
O          O       0.19902   0.82524   0.16945  -0.51993
O          O       0.31922   0.40453   0.02320  -0.60438
O          O       0.10456   0.33814   0.93507  -0.56934
O          O       0.51869   0.15226   0.72721  -0.58538
O          O       0.43681  -0.00061   0.65769  -0.57899

