data_crystal

_audit_creation_method 'AiiDA-DDEC plugin'

_cell_length_a         9.81063
_cell_length_b         9.88383
_cell_length_c        23.59802

_cell_angle_alpha     78.40707
_cell_angle_beta     79.37273
_cell_angle_gamma     89.75291

_symmetry_space_group_name_Hall 'P 1'
_symmetry_space_group_name_H-M  'P 1'

loop_
_symmetry_equiv_pos_as_xyz
 'x,y,z'

loop_
_atom_site_label
_atom_site_type_symbol
_atom_site_fract_x
_atom_site_fract_y
_atom_site_fract_z
_atom_site_charge
Zn         Zn      0.61026   0.25940   0.20775   0.92535
Zn         Zn      0.25707   0.93548   0.29255   0.93523
Zn         Zn      0.57817   0.61652   0.25256   0.98964
Zn         Zn      0.90334   0.94366   0.24697   0.97549
Zn         Zn      0.09698   0.44316   0.25107   1.04926
Zn         Zn      0.38973   0.74059   0.79225   0.92531
Zn         Zn      0.74291   0.06450   0.70745   0.93523
Zn         Zn      0.42182   0.38347   0.74744   0.98954
Zn         Zn      0.09664   0.05633   0.75303   0.97548
Zn         Zn      0.90301   0.55684   0.74893   1.04925
P          P       0.85069   0.46981   0.18346   1.50259
P          P       0.05225   0.68690   0.32107   1.49043
P          P       0.03659   0.14504   0.31675   1.49568
P          P       0.58176   0.94384   0.25042   1.47628
P          P       0.39852   0.47140   0.17490   1.48764
P          P       0.14930   0.53018   0.81654   1.50248
P          P       0.94772   0.31309   0.67893   1.49031
P          P       0.96340   0.85495   0.68325   1.49551
P          P       0.41822   0.05615   0.74958   1.47608
P          P       0.60146   0.52859   0.82511   1.48811
H          H       0.75061   0.53984   0.34083   0.10512
H          H       0.73241   0.48720   0.44781   0.12062
H          H       0.32965   0.61402   0.35467   0.10441
H          H       0.34937   0.28948   0.29329   0.10885
H          H       0.27799   0.24651   0.40024   0.12338
H          H       0.94631   0.75114   0.16147   0.10680
H          H       0.98565   0.76557   0.05517   0.12754
H          H       0.25320   0.17648   0.20034   0.10759
H          H       0.26810   0.75531   0.20067   0.10938
H          H       0.65275   0.11532   0.49895   0.12984
H          H       0.23841   0.25885   0.48542   0.12825
H          H       0.92932   0.17786   0.14260   0.12183
H          H       0.97396   0.21184   0.03440   0.12500
H          H       0.29231   0.56455   0.46222   0.12465
H          H       0.71343   0.18883   0.41143   0.12655
H          H       0.76403   0.23284   0.30333   0.10469
H          H       0.29086   0.23712   0.09332   0.12074
H          H       0.57408   0.06441   0.60846   0.12477
H          H       0.18146   0.20553   0.59521   0.11069
H          H       0.38815   0.31891   0.89585   0.10669
H          H       0.33730   0.27888   0.00563   0.13298
H          H       0.38356   0.90157   0.89612   0.12615
H          H       0.33414   0.83891   0.00639   0.12990
H          H       0.30659   0.79702   0.09320   0.11520
H          H       0.39819   0.13540   0.84726   0.28809
H          H       0.34407   0.09851   0.65015   0.28525
H          H       0.98345   0.97368   0.38884   0.39165
H          H       0.98469   0.48313   0.37197   0.40160
H          H       0.75094   0.50393   0.10886   0.39068
H          H       0.23455   0.53108   0.12620   0.40469
H          H       0.24938   0.46015   0.65918   0.10547
H          H       0.26758   0.51279   0.55219   0.12075
H          H       0.67034   0.38597   0.64533   0.10424
H          H       0.65061   0.71052   0.70671   0.10877
H          H       0.72200   0.75349   0.59976   0.12319
H          H       0.05368   0.24885   0.83854   0.10661
H          H       0.01434   0.23442   0.94484   0.12738
H          H       0.74679   0.82350   0.79967   0.10772
H          H       0.73188   0.24468   0.79933   0.10922
H          H       0.34724   0.88467   0.50105   0.12999
H          H       0.76158   0.74114   0.51458   0.12813
H          H       0.07068   0.82213   0.85740   0.12198
H          H       0.02603   0.78815   0.96560   0.12519
H          H       0.70768   0.43544   0.53778   0.12450
H          H       0.28656   0.81116   0.58858   0.12670
H          H       0.23595   0.76715   0.69667   0.10483
H          H       0.70913   0.76287   0.90668   0.12101
H          H       0.42591   0.93558   0.39154   0.12484
H          H       0.81853   0.79447   0.40479   0.11052
H          H       0.61184   0.68108   0.10415   0.10693
H          H       0.66269   0.72111   0.99438   0.13308
H          H       0.61643   0.09842   0.10388   0.12607
H          H       0.66585   0.16108   0.99361   0.12961
H          H       0.69340   0.20297   0.90680   0.11516
H          H       0.60180   0.86459   0.15274   0.28826
H          H       0.65592   0.90148   0.34985   0.28509
H          H       0.01653   0.02631   0.61116   0.39157
H          H       0.01530   0.51684   0.62803   0.40129
H          H       0.24905   0.49607   0.89114   0.39025
H          H       0.76543   0.46891   0.87381   0.40430
C          C       0.65074   0.54192   0.36959   0.09348
C          C       0.63838   0.51275   0.43039  -0.18299
C          C       0.41590   0.58372   0.37709   0.09101
C          C       0.42604   0.26907   0.32141   0.09495
C          C       0.38789   0.24590   0.38193  -0.16606
C          C       0.48910   0.21558   0.41749   0.07406
C          C       0.45104   0.18867   0.48154   0.08750
C          C       0.95320   0.85144   0.13167   0.10246
C          C       0.97684   0.86177   0.07097  -0.18021
C          C       0.98707   0.99210   0.03247   0.08756
C          C       0.26344   0.09545   0.17493   0.10551
C          C       0.27145   0.86011   0.17494   0.09576
C          C       0.54723   0.13660   0.51774  -0.19001
C          C       0.31573   0.21311   0.51030  -0.19048
C          C       0.94496   0.08966   0.12103   0.08866
C          C       0.96873   0.10689   0.06008  -0.18243
C          C       0.30117   0.02269   0.08139   0.07534
C          C       0.39654   0.55550   0.43811  -0.18319
C          C       0.62785   0.21205   0.38803  -0.17760
C          C       0.32830   0.05338   0.01704   0.08800
C          C       0.65859   0.23618   0.32722   0.10380
C          C       0.28479   0.12830   0.11418  -0.17380
C          C       0.50703   0.10665   0.57799   0.08771
C          C       0.28144   0.18417   0.57073   0.08764
C          C       0.37190   0.21649   0.92356   0.09759
C          C       0.34417   0.19110   0.98410  -0.18852
C          C       0.37051   0.97782   0.92384   0.08133
C          C       0.34349   0.94703   0.98448  -0.18137
C          C       0.50840   0.51595   0.46761   0.08311
C          C       0.29261   0.88583   0.11404  -0.18199
C          C       0.34925   0.45807   0.63042   0.09331
C          C       0.36161   0.48724   0.56961  -0.18308
C          C       0.58409   0.41628   0.62291   0.09091
C          C       0.57395   0.73092   0.67860   0.09481
C          C       0.61210   0.75409   0.61807  -0.16611
C          C       0.51089   0.78441   0.58251   0.07380
C          C       0.54895   0.81132   0.51846   0.08753
C          C       0.04679   0.14855   0.86833   0.10238
C          C       0.02314   0.13822   0.92903  -0.18020
C          C       0.01292   0.00788   0.96753   0.08766
C          C       0.73655   0.90454   0.82507   0.10539
C          C       0.72854   0.13988   0.82506   0.09554
C          C       0.45276   0.86339   0.48226  -0.18969
C          C       0.68426   0.78688   0.48970  -0.19057
C          C       0.05503   0.91033   0.87897   0.08859
C          C       0.03126   0.89310   0.93993  -0.18235
C          C       0.69882   0.97730   0.91861   0.07542
C          C       0.60345   0.44449   0.56189  -0.18326
C          C       0.37214   0.78794   0.61198  -0.17740
C          C       0.67169   0.94661   0.98296   0.08786
C          C       0.34140   0.76381   0.67278   0.10393
C          C       0.71520   0.87169   0.88582  -0.17385
C          C       0.49296   0.89334   0.42201   0.08760
C          C       0.71855   0.81582   0.42927   0.08750
C          C       0.62809   0.78351   0.07644   0.09755
C          C       0.65582   0.80889   0.01591  -0.18837
C          C       0.62948   0.02217   0.07616   0.08116
C          C       0.65650   0.05296   0.01552  -0.18115
C          C       0.49159   0.48404   0.53239   0.08324
C          C       0.70738   0.11415   0.88597  -0.18212
N          N       0.38384   0.11094   0.89439  -0.14141
N          N       0.93719   0.96310   0.15716  -0.25405
N          N       0.54172   0.57680   0.34229  -0.26649
N          N       0.55920   0.26498   0.29403  -0.27850
N          N       0.25588   0.96310   0.20539  -0.27547
N          N       0.37550   0.12840   0.60350  -0.14635
N          N       0.61615   0.88905   0.10561  -0.14144
N          N       0.06280   0.03689   0.84285  -0.25409
N          N       0.45827   0.42319   0.65771  -0.26622
N          N       0.44079   0.73502   0.70597  -0.27830
N          N       0.74411   0.03689   0.79462  -0.27534
N          N       0.62449   0.87159   0.39650  -0.14613
O          O       0.80834   0.31739   0.18868  -0.78257
O          O       0.00648   0.49365   0.18243  -0.78749
O          O       0.83294   0.54704   0.11684  -0.69219
O          O       0.76036   0.53976   0.22883  -0.82409
O          O       0.52071   0.38735   0.15058  -0.78703
O          O       0.44666   0.58661   0.20239  -0.79670
O          O       0.33543   0.54736   0.11724  -0.67735
O          O       0.27877   0.37900   0.21510  -0.79409
O          O       0.70616   0.95600   0.28226  -0.77214
O          O       0.60017   0.81724   0.21968  -0.78160
O          O       0.57911   0.07098   0.20005  -0.78456
O          O       0.45115   0.92422   0.29956  -0.78745
O          O       0.13452   0.78660   0.34605  -0.78924
O          O       0.14715   0.60146   0.28324  -0.81020
O          O       0.93813   0.75986   0.29108  -0.80343
O          O       0.97364   0.57668   0.37961  -0.67897
O          O       0.18611   0.10167   0.32016  -0.79150
O          O       0.98662   0.10732   0.26376  -0.80462
O          O       0.01347   0.29868   0.31955  -0.78402
O          O       0.93930   0.06125   0.37771  -0.68651
O          O       0.19165   0.68260   0.81132  -0.78279
O          O       0.99351   0.50635   0.81757  -0.78720
O          O       0.16705   0.45295   0.88316  -0.69161
O          O       0.23963   0.46024   0.77117  -0.82403
O          O       0.47928   0.61265   0.84942  -0.78703
O          O       0.55333   0.41338   0.79762  -0.79667
O          O       0.66455   0.45262   0.88276  -0.67698
O          O       0.72123   0.62099   0.78491  -0.79455
O          O       0.29383   0.04400   0.71774  -0.77205
O          O       0.39982   0.18275   0.78032  -0.78157
O          O       0.42088   0.92901   0.79995  -0.78442
O          O       0.54883   0.07577   0.70044  -0.78759
O          O       0.86542   0.21341   0.65396  -0.78904
O          O       0.85284   0.39853   0.71677  -0.81010
O          O       0.06184   0.24012   0.70892  -0.80350
O          O       0.02634   0.42328   0.62040  -0.67888
O          O       0.81388   0.89832   0.67984  -0.79124
O          O       0.01337   0.89267   0.73624  -0.80455
O          O       0.98651   0.70131   0.68045  -0.78387
O          O       0.06069   0.93875   0.62229  -0.68671

