data_crystal

_audit_creation_method 'AiiDA-DDEC plugin'

_cell_length_a        12.50871
_cell_length_b        15.48768
_cell_length_c        25.21105

_cell_angle_alpha     107.86565
_cell_angle_beta     104.35958
_cell_angle_gamma     90.01764

_symmetry_space_group_name_Hall 'P 1'
_symmetry_space_group_name_H-M  'P 1'

loop_
_symmetry_equiv_pos_as_xyz
 'x,y,z'

loop_
_atom_site_label
_atom_site_type_symbol
_atom_site_fract_x
_atom_site_fract_y
_atom_site_fract_z
_atom_site_charge
Sc         Sc      0.51980   0.82927   0.78923   1.86867
Sc         Sc      0.31416   0.87353   0.87726   1.86497
Sc         Sc      0.39696   0.33782   0.54390   1.86753
Sc         Sc      0.76968   0.96020   0.78932   1.86716
Sc         Sc      0.06373   0.00422   0.87717   1.86537
Sc         Sc      0.64745   0.20699   0.54399   1.86612
Sc         Sc      0.73050   0.67120   0.21060   1.86815
Sc         Sc      0.43651   0.62725   0.12288   1.86558
Sc         Sc      0.85321   0.16226   0.45600   1.86709
Sc         Sc      0.98078   0.54017   0.21056   1.86802
Sc         Sc      0.18673   0.49566   0.12280   1.86581
Sc         Sc      0.10298   0.29375   0.45605   1.86666
H          H       0.42609   0.97777   0.83918   0.42082
H          H       0.07479   0.68898   0.74951   0.12572
H          H       0.90407   0.72912   0.70915   0.12186
H          H       0.58607   0.58318   0.66653   0.14354
H          H       0.86185   0.43796   0.62418   0.12237
H          H       0.99233   0.47808   0.58364   0.12275
H          H       0.33041   0.58386   0.66670   0.14402
H          H       0.75816   0.77188   0.91686   0.12323
H          H       0.92922   0.85357   0.95799   0.12268
H          H       0.91285   0.86271   0.83973   0.42015
H          H       0.17450   0.06061   0.74962   0.12070
H          H       0.30581   0.98013   0.70929   0.12580
H          H       0.58054   0.08349   0.66636   0.14397
H          H       0.26222   0.18614   0.62410   0.12407
H          H       0.09153   0.10559   0.58366   0.12048
H          H       0.83632   0.08293   0.66661   0.14330
H          H       0.65886   0.14496   0.91686   0.12292
H          H       0.52877   0.10450   0.95809   0.12288
H          H       0.58619   0.52337   0.16104   0.42029
H          H       0.32559   0.81123   0.25046   0.12496
H          H       0.19545   0.77108   0.29101   0.12495
H          H       0.91956   0.91631   0.33329   0.14357
H          H       0.23750   0.06227   0.37588   0.12400
H          H       0.40866   0.02218   0.41633   0.12408
H          H       0.66386   0.91682   0.33339   0.14425
H          H       0.84105   0.72799   0.08316   0.12362
H          H       0.97208   0.64644   0.04213   0.12270
H          H       0.07420   0.63799   0.16013   0.42024
H          H       0.42517   0.43914   0.25048   0.12090
H          H       0.59565   0.51970   0.29084   0.12533
H          H       0.91383   0.41685   0.33315   0.14369
H          H       0.63892   0.31373   0.37606   0.12394
H          H       0.50751   0.39434   0.41651   0.12036
H          H       0.16956   0.41659   0.33322   0.14322
H          H       0.74185   0.35515   0.08304   0.12385
H          H       0.57057   0.39577   0.04196   0.12281
H          H       0.14740   0.89649   0.79446   0.42146
H          H       0.35283   0.60283   0.20564   0.42216
H          H       0.68625   0.93612   0.87250   0.41951
H          H       0.81404   0.56302   0.12747   0.41987
H          H       0.48064   0.22961   0.46096   0.42047
H          H       0.01948   0.26933   0.53904   0.42087
H          H       0.24944   0.19239   0.50034   0.42149
H          H       0.75016   0.30848   0.49951   0.42132
H          H       0.50301   0.75001  -0.00002   0.13873
H          H       0.24741   0.75049  -0.00010   0.14425
H          H       0.99707   0.25018   0.00001   0.14427
H          H       0.25273   0.24988  -0.00005   0.14399
C          C       0.29209   0.71384   0.75919   0.64285
C          C       0.20959   0.64501   0.71196  -0.04188
C          C       0.09786   0.64321   0.71250  -0.13115
C          C       0.01739   0.58354   0.66659   0.06270
C          C       0.89897   0.58356   0.66657   0.06108
C          C       0.85348   0.66456   0.69091  -0.12544
C          C       0.74201   0.66422   0.69205  -0.04299
C          C       0.69699   0.74973   0.72171   0.64183
C          C       0.67300   0.58333   0.66653  -0.09179
C          C       0.71670   0.50261   0.64102  -0.04447
C          C       0.64274   0.41676   0.61157   0.64353
C          C       0.82935   0.50250   0.64227  -0.12672
C          C       0.05220   0.52393   0.62072  -0.12852
C          C       0.16449   0.52244   0.62130  -0.04258
C          C       0.24349   0.58375   0.66667  -0.09497
C          C       0.20014   0.45394   0.57401   0.64315
C          C       0.54040   0.78668   0.90721   0.64161
C          C       0.62356   0.76560   0.95449  -0.04431
C          C       0.73528   0.76327   0.95396  -0.12882
C          C       0.97985   0.80684   0.97577  -0.12751
C          C       0.09125   0.80555   0.97442  -0.04490
C          C       0.13588   0.86202   0.94494   0.64263
C          C       0.96690   0.04566   0.75917   0.64378
C          C       0.00236   0.06715   0.71195  -0.04442
C          C       0.11464   0.06937   0.71253  -0.12441
C          C       0.14930   0.08301   0.66658   0.05993
C          C       0.26775   0.08293   0.66649   0.06071
C          C       0.33778   0.02645   0.69091  -0.12738
C          C       0.45038   0.02816   0.69202  -0.04276
C          C       0.52533   0.97280   0.72191   0.64310
C          C       0.49364   0.08338   0.66635  -0.09320
C          C       0.42439   0.13854   0.64081  -0.04597
C          C       0.46913   0.19524   0.61151   0.64278
C          C       0.31298   0.13971   0.64211  -0.12728
C          C       0.06863   0.09682   0.62071  -0.12466
C          C       0.95689   0.09902   0.62127  -0.04513
C          C       0.92322   0.08304   0.66662  -0.09096
C          C       0.87381   0.12031   0.57404   0.64272
C          C       0.86679   0.12081   0.90705   0.64250
C          C       0.83108   0.18895   0.95451  -0.04280
C          C       0.71883   0.19062   0.95398  -0.12964
C          C       0.49612   0.16911   0.97589  -0.12878
C          C       0.38343   0.16930   0.97456  -0.04387
C          C       0.30945   0.08344   0.94498   0.64366
C          C       0.53348   0.78706   0.24081   0.64495
C          C       0.49783   0.85553   0.28803  -0.04386
C          C       0.38556   0.85712   0.28748  -0.12960
C          C       0.35087   0.91675   0.33338   0.06253
C          C       0.23246   0.91668   0.33343   0.06046
C          C       0.16288   0.83557   0.30916  -0.12630
C          C       0.05026   0.83568   0.30800  -0.04443
C          C       0.97616   0.74984   0.27855   0.64301
C          C       0.00652   0.91649   0.33338  -0.09186
C          C       0.07553   0.99741   0.35890  -0.04335
C          C       0.03050   0.08307   0.38837   0.64298
C          C       0.18697   0.99768   0.35772  -0.12957
C          C       0.43146   0.97642   0.37923  -0.12957
C          C       0.54320   0.97798   0.37867  -0.04227
C          C       0.57694   0.91677   0.33335  -0.09464
C          C       0.62620   0.04625   0.42602   0.64259
C          C       0.63290   0.71453   0.09307   0.64307
C          C       0.66885   0.73452   0.04545  -0.04327
C          C       0.78116   0.73645   0.04598  -0.12978
C          C       0.00443   0.69318   0.02417  -0.12907
C          C       0.11715   0.69503   0.02553  -0.04256
C          C       0.19174   0.63923   0.05530   0.64187
C          C       0.20721   0.45370   0.24072   0.64289
C          C       0.29026   0.43241   0.28790  -0.04648
C          C       0.40205   0.43026   0.28746  -0.12384
C          C       0.48252   0.41660   0.33346   0.06009
C          C       0.60104   0.41675   0.33353   0.06062
C          C       0.64620   0.47331   0.30900  -0.12571
C          C       0.75745   0.47178   0.30748  -0.04554
C          C       0.80109   0.52760   0.27733   0.64478
C          C       0.82693   0.41691   0.33319  -0.09184
C          C       0.78374   0.36200   0.35911  -0.04403
C          C       0.85851   0.30621   0.38876   0.64357
C          C       0.67110   0.36027   0.35791  -0.12878
C          C       0.44765   0.40297   0.37938  -0.12546
C          C       0.33531   0.40100   0.37876  -0.04422
C          C       0.25644   0.41658   0.33324  -0.09054
C          C       0.29885   0.38075   0.42613   0.64405
C          C       0.95967   0.37928   0.09279   0.64231
C          C       0.87650   0.31122   0.04532  -0.04115
C          C       0.76477   0.30959   0.04590  -0.13067
C          C       0.52013   0.33116   0.02412  -0.13022
C          C       0.40875   0.33094   0.02543  -0.04262
C          C       0.36401   0.41670   0.05499   0.64388
C          C       0.58987   0.75001  -0.00006  -0.08605
C          C       0.81591   0.74973  -0.00005   0.05955
C          C       0.93444   0.74984  -0.00006   0.06124
C          C       0.16051   0.75035  -0.00007  -0.09263
C          C       0.91015   0.25008  -0.00007  -0.09392
C          C       0.68417   0.25011  -0.00005   0.06189
C          C       0.56575   0.25014  -0.00001   0.06178
C          C       0.33969   0.25006  -0.00001  -0.09157
O          O       0.26500   0.75316   0.80590  -0.63739
O          O       0.38386   0.73054   0.74932  -0.62778
O          O       0.30182   0.43751   0.58422  -0.62675
O          O       0.12674   0.41514   0.52704  -0.64105
O          O       0.68812   0.34178   0.60050  -0.64078
O          O       0.53870   0.42399   0.59820  -0.62699
O          O       0.60689   0.74127   0.73543  -0.62667
O          O       0.75175   0.82538   0.73245  -0.63901
O          O       0.44907   0.81338   0.91763  -0.62759
O          O       0.56651   0.77883   0.86021  -0.64231
O          O       0.07937   0.92599   0.93389  -0.64087
O          O       0.22660   0.84129   0.93160  -0.62539
O          O       0.41796   0.91315   0.83369  -1.05365
O          O       0.04043   0.05351   0.80606  -0.63873
O          O       0.86537   0.01868   0.74903  -0.62530
O          O       0.78230   0.14682   0.58429  -0.62703
O          O       0.89995   0.11242   0.52705  -0.63893
O          O       0.41284   0.25931   0.60053  -0.63992
O          O       0.56005   0.17465   0.59825  -0.62779
O          O       0.62917   0.99491   0.73562  -0.62863
O          O       0.48113   0.90830   0.73293  -0.64186
O          O       0.96850   0.10448   0.91718  -0.62871
O          O       0.79330   0.08205   0.86010  -0.64266
O          O       0.35494   0.00849   0.93381  -0.64304
O          O       0.20546   0.09066   0.93158  -0.62556
O          O       0.91611   0.92145   0.83373  -1.05276
O          O       0.45999   0.74802   0.19392  -0.64047
O          O       0.63514   0.77062   0.25089  -0.62586
O          O       0.71917   0.06093   0.41669  -0.62777
O          O       0.59828   0.08672   0.47230  -0.64172
O          O       0.08545   0.15868   0.39915  -0.64144
O          O       0.94032   0.07470   0.40200  -0.62563
O          O       0.87215   0.75727   0.26491  -0.62804
O          O       0.02121   0.67470   0.26779  -0.63914
O          O       0.53090   0.68891   0.08317  -0.62790
O          O       0.70646   0.72254   0.13996  -0.64277
O          O       0.14706   0.57506   0.06649  -0.64449
O          O       0.29561   0.66072   0.06881  -0.62518
O          O       0.58373   0.58791   0.16611  -1.05248
O          O       0.23329   0.44593   0.19373  -0.63752
O          O       0.11573   0.48035   0.25095  -0.62524
O          O       0.19681   0.35503   0.41590  -0.62609
O          O       0.37174   0.38900   0.47328  -0.64171
O          O       0.81417   0.24172   0.39979  -0.64473
O          O       0.96235   0.32801   0.40228  -0.62678
O          O       0.89045   0.50577   0.26272  -0.63102
O          O       0.74575   0.59252   0.26712  -0.63836
O          O       0.05267   0.39402   0.08352  -0.62952
O          O       0.93157   0.41977   0.13902  -0.64367
O          O       0.41946   0.49215   0.06591  -0.64224
O          O       0.27372   0.40864   0.06855  -0.62551
O          O       0.08424   0.57964   0.16661  -1.05342
O          O       0.16874   0.91828   0.83629  -1.05204
O          O       0.33326   0.58047   0.16382  -1.05250
O          O       0.66656   0.91397   0.83068  -1.05297
O          O       0.83559   0.58548   0.16929  -1.05394
O          O       0.50204   0.25197   0.50279  -1.05350
O          O      -0.00012   0.24715   0.49721  -1.05290
O          O       0.24980   0.25473   0.49987  -1.05390
O          O       0.75107   0.24621   0.50009  -1.05391

