data_crystal

_audit_creation_method 'AiiDA-DDEC plugin'

_cell_length_a        10.65712
_cell_length_b        12.94887
_cell_length_c        20.94656

_cell_angle_alpha     89.99896
_cell_angle_beta     93.99375
_cell_angle_gamma     90.00180

_symmetry_space_group_name_Hall 'P 1'
_symmetry_space_group_name_H-M  'P 1'

loop_
_symmetry_equiv_pos_as_xyz
 'x,y,z'

loop_
_atom_site_label
_atom_site_type_symbol
_atom_site_fract_x
_atom_site_fract_y
_atom_site_fract_z
_atom_site_charge
Ag         Ag      0.19494   0.18617   0.07125   0.15554
Ag         Ag      0.10262  -0.00134   0.39995   0.17524
Ag         Ag      0.30499   0.68622   0.92875   0.15553
Ag         Ag      0.39740   0.49865   0.60007   0.17535
Ag         Ag      0.80435   0.81409   0.92894   0.15555
Ag         Ag      0.89823  -0.00207   0.60044   0.17148
Ag         Ag      0.69566   0.31406   0.07106   0.15557
Ag         Ag      0.60163   0.49796   0.39956   0.17117
H          H       0.34626   0.04201   0.18594   0.08488
H          H       0.27644   0.95255   0.28334   0.08586
H          H       0.98452   0.16552   0.29245   0.09143
H          H       0.94474   0.29158   0.21025   0.11400
H          H       0.08009   0.33975   0.17335   0.13323
H          H       0.81605   0.13898   0.16180   0.12119
H          H       0.94306   0.05700   0.14169   0.12379
H          H       0.90540   0.94059   0.05270   0.09886
H          H       0.58031   0.97273   0.93063   0.08525
H          H       0.53476   0.14069   0.98243   0.09002
H          H       0.92484   0.17116   0.71188   0.08679
H          H       0.09147   0.28550   0.76476   0.08965
H          H       0.30959   0.24636   0.60922   0.09142
H          H       0.15898   0.03200   0.54617   0.10828
H          H       0.24057   0.14234   0.52069   0.12206
H          H       0.96292   0.27401   0.41526   0.12932
H          H       0.13053   0.26114   0.42157   0.11896
H          H       0.25344   0.36567   0.49235   0.07094
H          H       0.09177   0.53659   0.63380   0.07892
H          H       0.88758   0.44804   0.60772   0.08036
H          H       0.15372   0.54200   0.81405   0.08511
H          H       0.22353   0.45256   0.71665   0.08595
H          H       0.51551   0.66547   0.70758   0.09141
H          H       0.55530   0.79155   0.78975   0.11375
H          H       0.41993   0.83973   0.82664   0.13324
H          H       0.68399   0.63896   0.83824   0.12070
H          H       0.55696   0.55697   0.85833   0.12382
H          H       0.59458   0.44060   0.94738   0.09873
H          H       0.91969   0.47280   0.06944   0.08528
H          H       0.96523   0.64075   0.01759   0.08986
H          H       0.57511   0.67117   0.28812   0.08681
H          H       0.40849   0.78554   0.23527   0.08976
H          H       0.19039   0.74636   0.39082   0.09145
H          H       0.34101   0.53198   0.45384   0.10826
H          H       0.25944   0.64230   0.47932   0.12206
H          H       0.53708   0.77399   0.58475   0.12931
H          H       0.36950   0.76112   0.57844   0.11898
H          H       0.24658   0.86569   0.50768   0.07093
H          H       0.40825   0.03658   0.36623   0.07889
H          H       0.61243   0.94805   0.39228   0.08020
H          H       0.65604   0.95941   0.81479   0.08525
H          H       0.72527   0.04688   0.71659   0.08538
H          H       0.01513   0.83198   0.70768   0.09216
H          H       0.05571   0.70787   0.79074   0.11260
H          H       0.92029   0.66030   0.82781   0.13354
H          H       0.18430   0.86094   0.83862   0.12005
H          H       0.05745   0.94305   0.85876   0.12437
H          H       0.09528   0.05971   0.94758   0.09853
H          H       0.42012   0.02766   0.06983   0.08557
H          H       0.46591   0.85970   0.01797   0.08994
H          H       0.07445   0.83005   0.28800   0.08785
H          H       0.90865   0.71468   0.23545   0.08902
H          H       0.69098   0.75259   0.39129   0.09265
H          H       0.84111   0.96833   0.45411   0.10858
H          H       0.75911   0.85807   0.47944   0.12150
H          H       0.03474   0.72558   0.58535   0.13042
H          H       0.86731   0.73920   0.57793   0.11955
H          H       0.74526   0.63512   0.50654   0.07174
H          H       0.90863   0.46503   0.36537   0.07980
H          H       0.11370   0.55078   0.39365   0.08055
H          H       0.84396   0.45940   0.18521   0.08497
H          H       0.77478   0.54690   0.28341   0.08544
H          H       0.48486   0.33202   0.29232   0.09228
H          H       0.44424   0.20789   0.20926   0.11289
H          H       0.57971   0.16034   0.17219   0.13339
H          H       0.31569   0.36095   0.16135   0.11998
H          H       0.44255   0.44305   0.14119   0.12448
H          H       0.40473   0.55970   0.05235   0.09855
H          H       0.07978   0.52766   0.93017   0.08532
H          H       0.03399   0.35971   0.98206   0.09003
H          H       0.42558   0.33002   0.71200   0.08804
H          H       0.59137   0.21464   0.76454   0.08886
H          H       0.80903   0.25258   0.60867   0.09258
H          H       0.65888   0.46833   0.54588   0.10863
H          H       0.74085   0.35807   0.52055   0.12144
H          H       0.46520   0.22558   0.41465   0.13067
H          H       0.63264   0.23925   0.42205   0.11921
H          H       0.75472   0.13510   0.49344   0.07161
H          H       0.59132   0.96506   0.63461   0.07986
H          H       0.38626   0.05077   0.60633   0.08038
C          C       0.26643   0.07099   0.21041   0.00006
C          C       0.22924   0.02187   0.26449  -0.01756
C          C       0.06687   0.13866   0.26915  -0.05375
C          C       0.10259   0.18711   0.21426   0.17438
C          C       0.02433   0.27052   0.18246  -0.27102
C          C       0.87547   0.11553   0.12340  -0.26397
C          C       0.79640   0.07729   0.06669   0.17640
C          C       0.82297   0.98570   0.03663  -0.06025
C          C       0.64380   0.00379   0.96877  -0.02300
C          C       0.61857   0.09661   0.99781   0.00759
C          C       0.01202   0.18698   0.68943   0.02784
C          C       0.10411   0.25074   0.71824  -0.01042
C          C       0.22405   0.22929   0.63298  -0.01001
C          C       0.13179   0.16580   0.60273   0.19139
C          C       0.15238   0.11630   0.53992  -0.27327
C          C       0.04596   0.26141   0.44844  -0.26761
C          C       0.05483   0.33959   0.50085   0.18676
C          C       0.17034   0.38686   0.51711  -0.03746
C          C       0.08211   0.47938   0.59575  -0.01853
C          C       0.96864   0.43031   0.58059   0.02087
C          C       0.23358   0.57097   0.78959   0.00013
C          C       0.27077   0.52185   0.73552  -0.01773
C          C       0.43317   0.63860   0.73087  -0.05377
C          C       0.39743   0.68707   0.78574   0.17406
C          C       0.47569   0.77050   0.81754  -0.27051
C          C       0.62453   0.61553   0.87663  -0.26301
C          C       0.70362   0.57729   0.93334   0.17604
C          C       0.67702   0.48574   0.96343  -0.05999
C          C       0.85620   0.50382   0.03128  -0.02309
C          C       0.88145   0.59663   0.00224   0.00738
C          C       0.48795   0.68700   0.31058   0.02805
C          C       0.39585   0.75076   0.28179  -0.01116
C          C       0.27594   0.72932   0.36704  -0.00993
C          C       0.36820   0.66582   0.39729   0.19123
C          C       0.34762   0.61629   0.46009  -0.27323
C          C       0.45406   0.76141   0.55157  -0.26764
C          C       0.44517   0.83960   0.49916   0.18678
C          C       0.32966   0.88685   0.48290  -0.03739
C          C       0.41792   0.97939   0.40427  -0.01837
C          C       0.53137   0.93031   0.41943   0.02075
C          C       0.73537   0.92969   0.79022  -0.00464
C          C       0.77214   0.97756   0.73570  -0.01277
C          C       0.93346   0.85981   0.73114  -0.05745
C          C       0.89831   0.81274   0.78657   0.17686
C          C       0.97630   0.72930   0.81854  -0.27051
C          C       0.12510   0.88456   0.87708  -0.26458
C          C       0.20431   0.92297   0.93365   0.17622
C          C       0.17770   0.01460   0.96369  -0.05736
C          C       0.35678   0.99660   0.03161  -0.02516
C          C       0.38212   0.90379   0.00258   0.00922
C          C       0.98747   0.81389   0.31053   0.02433
C          C       0.89589   0.74940   0.28198  -0.00620
C          C       0.77623   0.77018   0.36741  -0.01068
C          C       0.86778   0.83449   0.39740   0.19141
C          C       0.84735   0.88399   0.46022  -0.27185
C          C       0.95261   0.73848   0.55163  -0.26774
C          C       0.94450   0.66021   0.49928   0.18730
C          C       0.82885   0.61365   0.48225  -0.03656
C          C       0.91812   0.52139   0.40392  -0.01427
C          C       0.03198   0.56916   0.42011   0.01927
C          C       0.76460   0.42971   0.20977  -0.00453
C          C       0.72786   0.47760   0.26429  -0.01308
C          C       0.56651   0.35984   0.26885  -0.05702
C          C       0.60164   0.31277   0.21342   0.17652
C          C       0.52365   0.22932   0.18145  -0.27042
C          C       0.37490   0.38456   0.12289  -0.26468
C          C       0.29567   0.42297   0.06631   0.17686
C          C       0.32226   0.51460   0.03627  -0.05813
C          C       0.14313   0.49662   0.96838  -0.02386
C          C       0.11779   0.40381   0.99743   0.00886
C          C       0.51254   0.31385   0.68946   0.02394
C          C       0.60413   0.24937   0.71801  -0.00532
C          C       0.72378   0.27017   0.63257  -0.01087
C          C       0.63221   0.33448   0.60258   0.19156
C          C       0.65262   0.38399   0.53977  -0.27226
C          C       0.54735   0.23848   0.44836  -0.26780
C          C       0.55549   0.16021   0.50072   0.18726
C          C       0.67115   0.11365   0.51774  -0.03654
C          C       0.58184   0.02139   0.59607  -0.01448
C          C       0.46800   0.06918   0.57987   0.01988
S          S       0.96150   0.23175   0.10144   0.08440
S          S       0.02200   0.12777   0.47858   0.06212
S          S       0.53843   0.73176   0.89859   0.08409
S          S       0.47799   0.62776   0.52143   0.06198
S          S       0.03929   0.76851   0.89941   0.08397
S          S       0.97801   0.87180   0.52146   0.06535
S          S       0.46072   0.26851   0.10058   0.08389
S          S       0.52198   0.37181   0.47853   0.06589
N          N       0.20652   0.15571   0.18427  -0.28456
N          N       0.12955   0.05641   0.29631  -0.20185
N          N       0.69345   0.13647   0.04697  -0.28583
N          N       0.74798   0.94607   0.98688  -0.19927
N          N       0.02439   0.14360   0.63146  -0.23949
N          N       0.21274   0.27193   0.69084  -0.24366
N          N       0.95061   0.35952   0.53304  -0.32077
N          N       0.18696   0.45832   0.56387  -0.19457
N          N       0.29347   0.65569   0.81573  -0.28454
N          N       0.37048   0.55637   0.70370  -0.20178
N          N       0.80657   0.63648   0.95306  -0.28589
N          N       0.75205   0.44607   0.01316  -0.19908
N          N       0.47558   0.64362   0.36855  -0.23930
N          N       0.28723   0.77197   0.30919  -0.24333
N          N       0.54940   0.85951   0.46697  -0.32102
N          N       0.31305   0.95835   0.43616  -0.19445
N          N       0.79479   0.84479   0.81658  -0.28288
N          N       0.87021   0.94136   0.70328  -0.20139
N          N       0.30735   0.86394   0.95339  -0.28579
N          N       0.25258   0.05426   0.01341  -0.19805
N          N       0.97487   0.85729   0.36851  -0.23739
N          N       0.78793   0.72712   0.30966  -0.24397
N          N       0.04923   0.64015   0.46763  -0.31797
N          N       0.81250   0.54330   0.43486  -0.19346
N          N       0.70518   0.34480   0.18342  -0.28305
N          N       0.62979   0.44139   0.29670  -0.20119
N          N       0.19259   0.36395   0.04660  -0.28611
N          N       0.24736   0.55427   0.98656  -0.19839
N          N       0.52513   0.35726   0.63149  -0.23710
N          N       0.71207   0.22711   0.69031  -0.24448
N          N       0.45074   0.14016   0.53236  -0.31776
N          N       0.68750   0.04332   0.56515  -0.19392

