data_crystal

_audit_creation_method 'AiiDA-DDEC plugin'

_cell_length_a        12.51401
_cell_length_b        15.57740
_cell_length_c        19.85786

_cell_angle_alpha     113.16162
_cell_angle_beta     108.34065
_cell_angle_gamma     89.97302

_symmetry_space_group_name_Hall 'P 1'
_symmetry_space_group_name_H-M  'P 1'

loop_
_symmetry_equiv_pos_as_xyz
 'x,y,z'

loop_
_atom_site_label
_atom_site_type_symbol
_atom_site_fract_x
_atom_site_fract_y
_atom_site_fract_z
_atom_site_charge
Cu         Cu      0.16946   0.15680   0.02637   0.71382
Cu         Cu      0.85714   0.37067   0.02534   0.70860
Cu         Cu      0.32853   0.12997   0.97355   0.71555
Cu         Cu      0.64498   0.34532   0.97387   0.71956
Cu         Cu      0.25867   0.50780   0.51520   0.27567
Cu         Cu      0.24267   0.99208   0.48434   0.27527
Cu         Cu      0.25492   0.74930   0.49863   0.27996
Cu         Cu      0.24372   0.25112   0.50106   0.27979
H          H       0.22508   0.52341   0.66086   0.15949
H          H       0.07524   0.52048   0.63668   0.15094
H          H       0.16627   0.60218   0.72976   0.16011
H          H       0.93877   0.85265   0.63397   0.11589
H          H       0.92187   0.01423   0.62287   0.12029
H          H       0.13814   0.36488   0.59764   0.15039
H          H       0.14394   0.36903   0.69024   0.16876
H          H       0.01047   0.34745   0.61596   0.14781
H          H       0.91777   0.64660   0.65988   0.11353
H          H       0.84121   0.72052   0.76866   0.10542
H          H       0.93949   0.87498   0.87924   0.13134
H          H       0.20010   0.87254   0.78129   0.14361
H          H       0.87590   0.23694   0.63596   0.10779
H          H       0.81987   0.28616   0.75516   0.10182
H          H       0.94621   0.27058   0.87327   0.13396
H          H       0.18849   0.16524   0.75853   0.14104
H          H       0.43620   0.63872   0.66147   0.16016
H          H       0.56170   0.61732   0.63689   0.15110
H          H       0.56418   0.62898   0.73008   0.15991
H          H       0.69493   0.28202   0.63426   0.11557
H          H       0.70034   0.10873   0.62241   0.12049
H          H       0.45740   0.73312   0.59724   0.15199
H          H       0.54533   0.82118   0.68970   0.16851
H          H       0.60343   0.76774   0.61477   0.14844
H          H       0.74195   0.51319   0.65913   0.11317
H          H       0.92761   0.54886   0.76736   0.10480
H          H       0.94117   0.50585   0.87875   0.13158
H          H       0.58285   0.41025   0.78200   0.14430
H          H       0.75927   0.89926   0.63618   0.10815
H          H       0.93369   0.96869   0.75543   0.10121
H          H       0.92533   0.10255   0.87401   0.13470
H          H       0.56946   0.09450   0.75901   0.14092
H          H       0.27427   0.86287   0.33942   0.15870
H          H       0.42412   0.88379   0.36362   0.15146
H          H       0.33323   0.87178   0.27034   0.16074
H          H       0.56116   0.21787   0.36625   0.11616
H          H       0.57855   0.39081   0.37731   0.12013
H          H       0.36126   0.76668   0.40169   0.15101
H          H       0.35656   0.67818   0.30923   0.16877
H          H       0.48951   0.73110   0.38409   0.14797
H          H       0.58148   0.98705   0.33950   0.11348
H          H       0.65728   0.95237   0.23037   0.10538
H          H       0.55767   0.99626   0.12007   0.13101
H          H       0.29845   0.09198   0.21942   0.14410
H          H       0.62401   0.60069   0.36422   0.10756
H          H       0.68053   0.53100   0.24523   0.10137
H          H       0.55432   0.39751   0.12661   0.13473
H          H       0.31140   0.40586   0.24037   0.14128
H          H       0.06468   0.97755   0.33930   0.15892
H          H       0.93865   0.98144   0.36329   0.15149
H          H       0.93672   0.89962   0.27017   0.16039
H          H       0.80469   0.64810   0.36591   0.11599
H          H       0.79966   0.48636   0.37708   0.12005
H          H       0.04265   0.13636   0.40251   0.15202
H          H       0.95565   0.13205   0.30994   0.16907
H          H       0.89649   0.15362   0.38435   0.14784
H          H       0.75711   0.85400   0.33969   0.11349
H          H       0.57206   0.78042   0.23096   0.10527
H          H       0.55989   0.62566   0.12013   0.13068
H          H       0.91833   0.62840   0.21796   0.14411
H          H       0.74119   0.26322   0.36333   0.10842
H          H       0.56691   0.21307   0.24385   0.10198
H          H       0.57536   0.22912   0.12571   0.13515
H          H       0.93152   0.33615   0.24144   0.13983
C          C       0.15719   0.56695   0.66782  -0.46949
C          C       0.16281   0.63745   0.63585   0.31826
C          C       0.13857   0.76626   0.61414   0.21510
C          C       0.10196   0.85303   0.61532  -0.10000
C          C       0.00266   0.88956   0.62486  -0.15020
C          C       0.99318   0.97551   0.61806  -0.15144
C          C       0.08467   0.00530   0.60222  -0.10136
C          C       0.10362   0.08590   0.58818   0.21737
C          C       0.10820   0.23225   0.59781   0.32444
C          C       0.09924   0.33425   0.62686  -0.47508
C          C       0.06321   0.75539   0.71413   0.15590
C          C       0.96220   0.71164   0.70998  -0.19461
C          C       0.91933   0.75395   0.77084  -0.08940
C          C       0.97469   0.83941   0.83343  -0.09813
C          C       0.07669   0.88193   0.83744   0.00688
C          C       0.12122   0.83880   0.77774  -0.18048
C          C       0.13797   0.97585   0.90195   0.56146
C          C       0.03591   0.20039   0.69121   0.15390
C          C       0.93157   0.23337   0.68907  -0.19345
C          C       0.90065   0.26031   0.75559  -0.07472
C          C       0.97161   0.25197   0.82219  -0.08289
C          C       0.07534   0.21728   0.82313   0.00428
C          C       0.10821   0.19247   0.75749  -0.17956
C          C       0.14806   0.19915   0.89153   0.56218
C          C       0.51110   0.60219   0.66823  -0.47034
C          C       0.47347   0.49971   0.63647   0.32649
C          C       0.47570   0.34908   0.61505   0.22013
C          C       0.51319   0.26319   0.61576  -0.09636
C          C       0.62191   0.23584   0.62502  -0.15120
C          C       0.62440   0.14299   0.61792  -0.14888
C          C       0.51702   0.09740   0.60215  -0.10183
C          C       0.48399   0.00280   0.58824   0.21877
C          C       0.48842   0.86579   0.59755   0.32467
C          C       0.52607   0.79254   0.62626  -0.47611
C          C       0.65143   0.45995   0.71427   0.16120
C          C       0.74813   0.49892   0.70955  -0.19239
C          C       0.85216   0.51764   0.77008  -0.08974
C          C       0.86008   0.49497   0.83284  -0.09589
C          C       0.76232   0.45606   0.83689   0.00464
C          C       0.65784   0.44000   0.77782  -0.17917
C          C       0.76554   0.42566   0.90079   0.56310
C          C       0.65410   0.99111   0.69144   0.15207
C          C       0.75625   0.95580   0.68933  -0.19276
C          C       0.85352   0.99522   0.75594  -0.07446
C          C       0.84922   0.07022   0.82264  -0.08165
C          C       0.74661   0.10621   0.82339   0.00216
C          C       0.64830   0.06564   0.75773  -0.17903
C          C       0.74208   0.19276   0.89168   0.56470
C          C       0.34225   0.89902   0.33228  -0.47058
C          C       0.33661   0.00154   0.36409   0.32413
C          C       0.36129   0.15225   0.38637   0.21974
C          C       0.39851   0.23788   0.38559  -0.09834
C          C       0.49765   0.26433   0.37559  -0.15219
C          C       0.50726   0.35699   0.38217  -0.14944
C          C       0.41600   0.40299   0.39814  -0.10374
C          C       0.39687   0.49752   0.41173   0.21884
C          C       0.39131   0.63397   0.40164   0.32591
C          C       0.40055   0.70688   0.37268  -0.47538
C          C       0.43561   0.04129   0.28580   0.16084
C          C       0.53660   0.00177   0.28944  -0.19288
C          C       0.57902   0.98343   0.22841  -0.08977
C          C       0.52302   0.00655   0.16613  -0.09686
C          C       0.42123   0.04539   0.16289   0.00736
C          C       0.37717   0.06157   0.22265  -0.18091
C          C       0.35961   0.07577   0.09917   0.56036
C          C       0.46405   0.50868   0.30846   0.15307
C          C       0.56843   0.54408   0.31091  -0.19315
C          C       0.59958   0.50469   0.24447  -0.07536
C          C       0.52889   0.42968   0.17772  -0.08269
C          C       0.42525   0.39375   0.17657   0.00340
C          C       0.39198   0.43439   0.24205  -0.17889
C          C       0.35237   0.30743   0.10803   0.56292
C          C       0.98927   0.93454   0.33215  -0.47070
C          C       0.02622   0.86368   0.36382   0.32727
C          C       0.02372   0.73442   0.38500   0.22293
C          C       0.98633   0.64773   0.38399  -0.09916
C          C       0.87776   0.61109   0.37483  -0.15015
C          C       0.87556   0.52523   0.38170  -0.14808
C          C       0.98307   0.49551   0.39731  -0.10189
C          C       0.01639   0.41497   0.41129   0.21998
C          C       0.01186   0.26875   0.40215   0.32626
C          C       0.97426   0.16677   0.37331  -0.47607
C          C       0.84855   0.74555   0.28524   0.16020
C          C       0.75157   0.78913   0.28945  -0.19198
C          C       0.64785   0.74678   0.22870  -0.09073
C          C       0.64072   0.66126   0.16611  -0.09579
C          C       0.73885   0.61879   0.16212   0.00688
C          C       0.84295   0.66202   0.22167  -0.18020
C          C       0.73591   0.52502   0.09752   0.56126
C          C       0.84629   0.30007   0.30825   0.15307
C          C       0.74417   0.26681   0.31028  -0.19386
C          C       0.64705   0.23950   0.24359  -0.07450
C          C       0.65145   0.24823   0.17711  -0.08322
C          C       0.75389   0.28401   0.17652   0.00244
C          C       0.85224   0.30864   0.24217  -0.17712
C          C       0.75812   0.30272   0.10833   0.56272
S          S       0.18554   0.92839   0.60024   0.13239
S          S       0.41436   0.17256   0.60027   0.13316
S          S       0.31539   0.32870   0.40096   0.13165
S          S       0.08543   0.57260   0.39909   0.13367
N          N       0.10968   0.71695   0.65255  -0.08842
N          N       0.21972   0.63624   0.58941  -0.23167
N          N       0.20584   0.71762   0.57576  -0.23301
N          N       0.07072   0.17254   0.62405  -0.10557
N          N       0.15710   0.09300   0.54087  -0.23252
N          N       0.15937   0.18568   0.54779  -0.22505
N          N       0.54313   0.43689   0.65327  -0.10717
N          N       0.37019   0.45449   0.59014  -0.23195
N          N       0.37012   0.35956   0.57682  -0.23006
N          N       0.55221   0.95199   0.62430  -0.10376
N          N       0.38342   0.94814   0.54056  -0.23050
N          N       0.38766   0.86229   0.54723  -0.22672
N          N       0.38989   0.06438   0.34765  -0.10654
N          N       0.27993   0.04685   0.41070  -0.23073
N          N       0.29394   0.14199   0.42464  -0.23203
N          N       0.42909   0.54803   0.37555  -0.10576
N          N       0.34332   0.55209   0.45900  -0.23183
N          N       0.34037   0.63765   0.45179  -0.22610
N          N       0.95648   0.78392   0.34671  -0.10780
N          N       0.12938   0.86475   0.41030  -0.23034
N          N       0.12927   0.78313   0.42351  -0.23090
N          N       0.94809   0.32812   0.37539  -0.10644
N          N       0.11699   0.40809   0.45898  -0.23121
N          N       0.11260   0.31560   0.45243  -0.22578
O          O       0.08248   0.02553   0.94342  -0.53073
O          O       0.23905   0.99653   0.90619  -0.54925
O          O       0.10496   0.20881   0.94375  -0.53047
O          O       0.24366   0.17252   0.88893  -0.53989
O          O       0.86291   0.41954   0.94296  -0.52831
O          O       0.66863   0.40670   0.90398  -0.55110
O          O       0.83756   0.23516   0.94379  -0.53339
O          O       0.64408   0.21694   0.88918  -0.53854
O          O       0.41437   0.08218   0.05680  -0.52823
O          O       0.25961   0.09457   0.09634  -0.54773
O          O       0.39654   0.26392   0.05649  -0.53025
O          O       0.25586   0.28481   0.10996  -0.53864
O          O       0.63862   0.47604   0.05573  -0.53076
O          O       0.83241   0.50362   0.09316  -0.54973
O          O       0.66250   0.29306   0.05619  -0.53108
O          O       0.85614   0.32957   0.11101  -0.53788

