data_crystal

_audit_creation_method 'AiiDA-DDEC plugin'

_cell_length_a        13.27704
_cell_length_b        13.35112
_cell_length_c        23.10041

_cell_angle_alpha     89.91134
_cell_angle_beta     90.00000
_cell_angle_gamma     90.00000

_symmetry_space_group_name_Hall 'P 1'
_symmetry_space_group_name_H-M  'P 1'

loop_
_symmetry_equiv_pos_as_xyz
 'x,y,z'

loop_
_atom_site_label
_atom_site_type_symbol
_atom_site_fract_x
_atom_site_fract_y
_atom_site_fract_z
_atom_site_charge
Zn         Zn      0.26996   0.75000   0.75000   1.00846
Zn         Zn      0.23021   0.25000   0.75000   1.01413
Zn         Zn      0.73004   0.25000   0.25000   1.00848
Zn         Zn      0.76979   0.75000   0.25000   1.01407
Zn         Zn      0.74980   0.00169   0.29564   0.93453
Zn         Zn      0.74980   0.49831   0.20436   0.93452
Zn         Zn      0.25020  -0.00169   0.70436   0.93451
Zn         Zn      0.25020   0.50169   0.79564   0.93460
Si         Si      0.75048   0.49992   0.53929   0.69076
Si         Si      0.75048   0.00008   0.96071   0.69070
Si         Si      0.24952   0.50008   0.46071   0.69087
Si         Si      0.24952  -0.00008   0.03929   0.69064
H          H       0.61233   0.31487   0.52637   0.09843
H          H       0.61066   0.17744   0.45351   0.12112
H          H       0.86438   0.31035   0.36709   0.10691
H          H       0.87062   0.44447   0.44051   0.09811
H          H       0.64373   0.36904   0.62671   0.10337
H          H       0.50029   0.39921   0.69356   0.11988
H          H       0.46959   0.69806   0.62748   0.11243
H          H       0.60973   0.66821   0.55849   0.10034
H          H       0.88851   0.68536   0.52586   0.09821
H          H       0.88819   0.82391   0.45349   0.12051
H          H       0.63514   0.68983   0.36727   0.10671
H          H       0.63057   0.55485   0.44043   0.09764
H          H       0.85676   0.63096   0.62638   0.10329
H          H       0.00021   0.60069   0.69354   0.11973
H          H       0.03185   0.30228   0.62774   0.11298
H          H       0.89160   0.33173   0.55864   0.09999
H          H       0.88851   0.81464   0.97413   0.09836
H          H       0.88819   0.67609   0.04651   0.12053
H          H       0.63514   0.81018   0.13272   0.10659
H          H       0.63057   0.94515   0.05957   0.09768
H          H       0.85676   0.86904   0.87361   0.10326
H          H       0.00021   0.89931   0.80645   0.11976
H          H       0.03185   0.19772   0.87225   0.11297
H          H       0.89160   0.16827   0.94135   0.09985
H          H       0.61233   0.18513   0.97363   0.09854
H          H       0.61066   0.32256   0.04649   0.12113
H          H       0.86438   0.18965   0.13291   0.10688
H          H       0.87062   0.05553   0.05949   0.09808
H          H       0.64373   0.13096   0.87329   0.10354
H          H       0.50029   0.10079   0.80643   0.11994
H          H       0.46959   0.80194   0.87251   0.11226
H          H       0.60973   0.83179   0.94151   0.10001
H          H       0.38767   0.68513   0.47363   0.09859
H          H       0.38934   0.82257   0.54649   0.12120
H          H       0.13562   0.68965   0.63290   0.10676
H          H       0.12939   0.55553   0.55949   0.09803
H          H       0.35627   0.63096   0.37329   0.10352
H          H       0.49971   0.60079   0.30644   0.11993
H          H       0.53041   0.30194   0.37252   0.11232
H          H       0.39027   0.33179   0.44151   0.10010
H          H       0.11150   0.31464   0.47414   0.09826
H          H       0.11182   0.17609   0.54651   0.12049
H          H       0.36486   0.31018   0.63272   0.10655
H          H       0.36943   0.44515   0.55957   0.09770
H          H       0.14324   0.36904   0.37361   0.10332
H          H      -0.00021   0.39931   0.30646   0.11977
H          H       0.96815   0.69772   0.37225   0.11304
H          H       0.10840   0.66827   0.44135   0.09999
H          H       0.11150   0.18536   0.02586   0.09821
H          H       0.11182   0.32391   0.95348   0.12037
H          H       0.36486   0.18982   0.86727   0.10674
H          H       0.36943   0.05485   0.94042   0.09774
H          H       0.14324   0.13096   0.12639   0.10328
H          H      -0.00021   0.10069   0.19354   0.11973
H          H       0.96815   0.80228   0.12774   0.11294
H          H       0.10840   0.83173   0.05864   0.09997
H          H       0.38767   0.81487   0.02637   0.09820
H          H       0.38934   0.67744   0.95351   0.12112
H          H       0.13562   0.81035   0.86709   0.10688
H          H       0.12939   0.94447   0.94051   0.09806
H          H       0.35627   0.86904   0.12671   0.10319
H          H       0.49971   0.89921   0.19356   0.11988
H          H       0.53041   0.19806   0.12748   0.11237
H          H       0.39027   0.16821   0.05849   0.10014
C          C       0.74207   0.38942   0.48929  -0.20203
C          C       0.66909   0.31333   0.49236  -0.07705
C          C       0.66692   0.23656   0.45139  -0.08410
C          C       0.73643   0.23630   0.40563  -0.03643
C          C       0.81035   0.31122   0.40243  -0.08851
C          C       0.81337   0.38627   0.44403  -0.07221
C          C       0.73131   0.15797   0.36050   0.57402
C          C       0.63694   0.51617   0.58686  -0.20990
C          C       0.60482   0.44084   0.62559  -0.07748
C          C       0.52479   0.45724   0.66358  -0.09609
C          C       0.47586   0.55054   0.66431  -0.03420
C          C       0.50748   0.62606   0.62629  -0.08686
C          C       0.58635   0.60874   0.58781  -0.07675
C          C       0.39190   0.57138   0.70581   0.60725
C          C       0.75892   0.61036   0.48907  -0.20312
C          C       0.83140   0.68690   0.49205  -0.07626
C          C       0.83250   0.76427   0.45131  -0.08398
C          C       0.76262   0.76459   0.40575  -0.03742
C          C       0.68952   0.68893   0.40245  -0.08938
C          C       0.68742   0.61341   0.44392  -0.07103
C          C       0.76619   0.84404   0.36105   0.57621
C          C       0.86391   0.48379   0.58689  -0.21119
C          C       0.89585   0.55923   0.62547  -0.07740
C          C       0.97582   0.54284   0.66353  -0.09468
C          C       0.02486   0.44966   0.66437  -0.03527
C          C       0.99361   0.37410   0.62640  -0.08840
C          C       0.91473   0.39131   0.58788  -0.07533
C          C       0.10872   0.42895   0.70593   0.60771
C          C       0.75892   0.88964   0.01093  -0.20314
C          C       0.83140   0.81311   0.00795  -0.07628
C          C       0.83250   0.73573   0.04868  -0.08418
C          C       0.76262   0.73541   0.09425  -0.03735
C          C       0.68952   0.81108   0.09755  -0.08945
C          C       0.68742   0.88660   0.05608  -0.07088
C          C       0.76619   0.65596   0.13895   0.57643
C          C       0.86391   0.01621   0.91311  -0.21126
C          C       0.89585   0.94077   0.87453  -0.07728
C          C       0.97582   0.95716   0.83647  -0.09453
C          C       0.02486   0.05034   0.83563  -0.03518
C          C       0.99361   0.12590   0.87359  -0.08814
C          C       0.91473   0.10869   0.91211  -0.07562
C          C       0.10872   0.07105   0.79406   0.60739
C          C       0.74207   0.11058   0.01071  -0.20213
C          C       0.66909   0.18667   0.00764  -0.07708
C          C       0.66692   0.26344   0.04861  -0.08398
C          C       0.73643   0.26371   0.09437  -0.03646
C          C       0.81035   0.18878   0.09757  -0.08863
C          C       0.81337   0.11373   0.05597  -0.07217
C          C       0.73131   0.34203   0.13949   0.57399
C          C       0.63694   0.98383   0.91313  -0.20998
C          C       0.60482   0.05916   0.87441  -0.07781
C          C       0.52479   0.04276   0.83641  -0.09555
C          C       0.47586   0.94947   0.83568  -0.03432
C          C       0.50748   0.87394   0.87370  -0.08662
C          C       0.58635   0.89127   0.91219  -0.07674
C          C       0.39190   0.92862   0.79419   0.60730
C          C       0.25794   0.61058   0.51071  -0.20220
C          C       0.33091   0.68667   0.50764  -0.07694
C          C       0.33308   0.76344   0.54860  -0.08385
C          C       0.26357   0.76371   0.59437  -0.03655
C          C       0.18965   0.68878   0.59757  -0.08867
C          C       0.18664   0.61373   0.55597  -0.07213
C          C       0.26870   0.84203   0.63949   0.57403
C          C       0.36306   0.48383   0.41314  -0.20997
C          C       0.39518   0.55917   0.37441  -0.07790
C          C       0.47521   0.54276   0.33642  -0.09550
C          C       0.52414   0.44947   0.33568  -0.03447
C          C       0.49253   0.37394   0.37370  -0.08651
C          C       0.41366   0.39127   0.41219  -0.07683
C          C       0.60811   0.42862   0.29419   0.60728
C          C       0.24108   0.38964   0.51093  -0.20312
C          C       0.16861   0.31311   0.50794  -0.07615
C          C       0.16751   0.23573   0.54868  -0.08422
C          C       0.23739   0.23541   0.59425  -0.03732
C          C       0.31049   0.31108   0.59755  -0.08932
C          C       0.31259   0.38659   0.55607  -0.07091
C          C       0.23382   0.15596   0.63895   0.57638
C          C       0.13609   0.51622   0.41311  -0.21120
C          C       0.10415   0.44077   0.37453  -0.07742
C          C       0.02418   0.45716   0.33647  -0.09463
C          C       0.97514   0.55035   0.33563  -0.03508
C          C       0.00639   0.62590   0.37359  -0.08847
C          C       0.08528   0.60870   0.41211  -0.07546
C          C       0.89128   0.57105   0.29406   0.60742
C          C       0.24108   0.11036   0.98907  -0.20314
C          C       0.16861   0.18690   0.99205  -0.07654
C          C       0.16751   0.26427   0.95131  -0.08383
C          C       0.23739   0.26459   0.90574  -0.03762
C          C       0.31049   0.18892   0.90245  -0.08911
C          C       0.31259   0.11341   0.94392  -0.07109
C          C       0.23382   0.34404   0.86105   0.57638
C          C       0.13609   0.98379   0.08689  -0.21114
C          C       0.10415   0.05923   0.12547  -0.07727
C          C       0.02418   0.04284   0.16353  -0.09462
C          C       0.97514   0.94966   0.16437  -0.03507
C          C       0.00639   0.87410   0.12641  -0.08846
C          C       0.08528   0.89131   0.08788  -0.07552
C          C       0.89128   0.92895   0.20594   0.60749
C          C       0.25794   0.88942   0.98928  -0.20211
C          C       0.33091   0.81334   0.99235  -0.07667
C          C       0.33308   0.73656   0.95139  -0.08408
C          C       0.26357   0.73630   0.90563  -0.03645
C          C       0.18965   0.81122   0.90243  -0.08848
C          C       0.18664   0.88627   0.94403  -0.07224
C          C       0.26870   0.65797   0.86050   0.57398
C          C       0.36306   0.01617   0.08686  -0.20991
C          C       0.39518   0.94084   0.12559  -0.07739
C          C       0.47521   0.95724   0.16358  -0.09586
C          C       0.52414   0.05054   0.16431  -0.03435
C          C       0.49253   0.12606   0.12630  -0.08661
C          C       0.41366   0.10874   0.08781  -0.07676
C          C       0.60811   0.07138   0.20581   0.60728
O          O       0.78833   0.16727   0.31377  -0.59962
O          O       0.67705   0.08139   0.36600  -0.48622
O          O       0.35423   0.65979   0.70352  -0.58610
O          O       0.36469   0.50069   0.73935  -0.54489
O          O       0.71215   0.83324   0.31348  -0.59976
O          O       0.81658   0.92297   0.36821  -0.48809
O          O       0.14585   0.34042   0.70402  -0.58544
O          O       0.13595   0.49977   0.73927  -0.54629
O          O       0.71215   0.66677   0.18652  -0.59995
O          O       0.81658   0.57703   0.13179  -0.48817
O          O       0.14585   0.15958   0.79597  -0.58541
O          O       0.13595   0.00023   0.76073  -0.54597
O          O       0.78833   0.33273   0.18622  -0.59962
O          O       0.67705   0.41861   0.13400  -0.48614
O          O       0.35423   0.84021   0.79648  -0.58627
O          O       0.36469  -0.00069   0.76065  -0.54470
O          O       0.21167   0.83273   0.68622  -0.59976
O          O       0.32295   0.91861   0.63400  -0.48602
O          O       0.64577   0.34021   0.29648  -0.58621
O          O       0.63531   0.49931   0.26065  -0.54476
O          O       0.28785   0.16676   0.68652  -0.59991
O          O       0.18342   0.07703   0.63179  -0.48817
O          O       0.85415   0.65958   0.29597  -0.58534
O          O       0.86405   0.50023   0.26073  -0.54612
O          O       0.28785   0.33324   0.81348  -0.59966
O          O       0.18342   0.42297   0.86821  -0.48835
O          O       0.85415   0.84043   0.20403  -0.58549
O          O       0.86405  -0.00023   0.23927  -0.54605
O          O       0.21167   0.66727   0.81377  -0.59967
O          O       0.32295   0.58139   0.86600  -0.48619
O          O       0.64577   0.15979   0.20352  -0.58613
O          O       0.63531   0.00069   0.23935  -0.54480

