data_crystal

_audit_creation_method 'AiiDA-DDEC plugin'

_cell_length_a        13.17844
_cell_length_b        14.07737
_cell_length_c        19.07519

_cell_angle_alpha     90.00000
_cell_angle_beta     90.30350
_cell_angle_gamma     90.00000

_symmetry_space_group_name_Hall 'P 1'
_symmetry_space_group_name_H-M  'P 1'

loop_
_symmetry_equiv_pos_as_xyz
 'x,y,z'

loop_
_atom_site_label
_atom_site_type_symbol
_atom_site_fract_x
_atom_site_fract_y
_atom_site_fract_z
_atom_site_charge
Cd         Cd      0.14130   0.55315   0.65976   0.84937
Cd         Cd      0.35870   0.55315   0.34024   0.84948
Cd         Cd      0.35757   0.05431   0.16020   0.84723
Cd         Cd      0.14242   0.05431   0.83981   0.84735
Cd         Cd      0.64243   0.94569   0.83981   0.84732
Cd         Cd      0.85758   0.94569   0.16020   0.84725
Cd         Cd      0.85870   0.44685   0.34024   0.84953
Cd         Cd      0.64130   0.44685   0.65976   0.84932
H          H       0.78199   0.15206   0.72863   0.14409
H          H       0.90940   0.04773   0.78595   0.10379
H          H       0.13380   0.25330   0.76825   0.09763
H          H       0.43302   0.96167  -0.00147   0.08589
H          H       0.41033   0.87294   0.06292   0.09553
H          H       0.30771   0.08531   0.97588   0.11183
H          H       0.34300   0.96298   0.89218   0.09678
H          H       0.25054   0.87305   0.87322   0.08827
H          H       0.21607   0.75167   0.95930   0.09866
H          H       0.71801   0.15206   0.27138   0.14411
H          H       0.59060   0.04773   0.21405   0.10384
H          H       0.36620   0.25330   0.23175   0.09777
H          H       0.06697   0.96167   0.00148   0.08603
H          H       0.08967   0.87294   0.93708   0.09546
H          H       0.19229   0.08531   0.02413   0.11184
H          H       0.15700   0.96298   0.10782   0.09687
H          H       0.24946   0.87305   0.12679   0.08833
H          H       0.28392   0.75167   0.04070   0.09873
H          H       0.71662   0.65165   0.22805   0.14379
H          H       0.59035   0.54698   0.28554   0.10341
H          H       0.36613   0.75342   0.26940   0.09710
H          H       0.06690   0.46147   0.49745   0.08658
H          H       0.08989   0.37267   0.56196   0.09553
H          H       0.19225   0.58510   0.47547   0.11159
H          H       0.15677   0.46309   0.39178   0.09694
H          H       0.24893   0.37301   0.37314   0.08792
H          H       0.28381   0.25154   0.45952   0.09890
H          H       0.78338   0.65165   0.77196   0.14382
H          H       0.90965   0.54698   0.71446   0.10335
H          H       0.13387   0.75342   0.73061   0.09696
H          H       0.43310   0.46147   0.50256   0.08662
H          H       0.41011   0.37267   0.43804   0.09546
H          H       0.30775   0.58510   0.52454   0.11163
H          H       0.34323   0.46309   0.60822   0.09695
H          H       0.25107   0.37301   0.62687   0.08798
H          H       0.21618   0.25154   0.54048   0.09904
H          H       0.28338   0.34835   0.77196   0.14382
H          H       0.40965   0.45302   0.71446   0.10339
H          H       0.63387   0.24658   0.73061   0.09704
H          H       0.93310   0.53853   0.50256   0.08667
H          H       0.91011   0.62733   0.43804   0.09546
H          H       0.80775   0.41490   0.52453   0.11166
H          H       0.84323   0.53691   0.60822   0.09697
H          H       0.75107   0.62699   0.62687   0.08792
H          H       0.71618   0.74846   0.54048   0.09900
H          H       0.21662   0.34835   0.22805   0.14376
H          H       0.09035   0.45302   0.28554   0.10336
H          H       0.86613   0.24658   0.26940   0.09700
H          H       0.56690   0.53853   0.49745   0.08655
H          H       0.58989   0.62733   0.56196   0.09550
H          H       0.69225   0.41490   0.47547   0.11158
H          H       0.65677   0.53691   0.39178   0.09688
H          H       0.74893   0.62699   0.37314   0.08789
H          H       0.78382   0.74846   0.45952   0.09892
H          H       0.21801   0.84794   0.27138   0.14407
H          H       0.09060   0.95226   0.21405   0.10376
H          H       0.86620   0.74670   0.23175   0.09770
H          H       0.56698   0.03833   0.00148   0.08597
H          H       0.58967   0.12706   0.93708   0.09543
H          H       0.69229   0.91469   0.02413   0.11177
H          H       0.65700   0.03702   0.10782   0.09689
H          H       0.74946   0.12695   0.12679   0.08835
H          H       0.78393   0.24833   0.04070   0.09870
H          H       0.28199   0.84794   0.72863   0.14411
H          H       0.40940   0.95226   0.78595   0.10383
H          H       0.63380   0.74670   0.76825   0.09771
H          H       0.93302   0.03833  -0.00147   0.08598
H          H       0.91033   0.12706   0.06292   0.09553
H          H       0.80771   0.91469   0.97588   0.11187
H          H       0.84300   0.03702   0.89218   0.09683
H          H       0.75054   0.12695   0.87322   0.08826
H          H       0.71608   0.24833   0.95930   0.09861
C          C       0.03520   0.88623   0.80526   0.55861
C          C       0.99190   0.79516   0.77679  -0.09724
C          C       0.89000   0.76818   0.78612   0.03892
C          C       0.80750   0.33511   0.68665   0.55244
C          C       0.86058   0.67707   0.76432  -0.14964
C          C       0.93013   0.61844   0.73112   0.09684
C          C       0.05557   0.23273   0.75819   0.07533
C          C       0.12515   0.91633   0.97786  -0.00254
C          C       0.21529   0.91662   0.08533  -0.02052
C          C       0.46479   0.88623   0.19474   0.55825
C          C       0.50810   0.79516   0.22321  -0.09733
C          C       0.61000   0.76818   0.21388   0.03893
C          C       0.69250   0.33511   0.31336   0.55226
C          C       0.63942   0.67707   0.23568  -0.14947
C          C       0.56988   0.61844   0.26888   0.09657
C          C       0.44443   0.23273   0.24181   0.07518
C          C       0.37485   0.91633   0.02214  -0.00263
C          C       0.28471   0.91662   0.91467  -0.02070
C          C       0.46532   0.38573   0.30576   0.55796
C          C       0.50905   0.29495   0.27755  -0.09673
C          C       0.61139   0.26845   0.28672   0.04083
C          C       0.69086   0.83397   0.18678   0.55312
C          C       0.64056   0.17755   0.26442  -0.15098
C          C       0.57043   0.11901   0.23112   0.09708
C          C       0.44407   0.73283   0.25897   0.07582
C          C       0.37482   0.41613   0.47863  -0.00525
C          C       0.28492   0.41656   0.58552  -0.02086
C          C       0.03468   0.38573   0.69425   0.55818
C          C       0.99095   0.29495   0.72245  -0.09680
C          C       0.88861   0.26845   0.71328   0.04087
C          C       0.80914   0.83397   0.81322   0.55315
C          C       0.85944   0.17755   0.73558  -0.15115
C          C       0.92957   0.11901   0.76888   0.09728
C          C       0.05593   0.73283   0.74103   0.07593
C          C       0.12518   0.41613   0.52138  -0.00505
C          C       0.21508   0.41656   0.41448  -0.02099
C          C       0.25000   0.03998   0.00000  -0.00381
C          C       0.25000   0.79689   0.00000   0.01515
C          C       0.25000   0.53980   0.50000  -0.00254
C          C       0.25000   0.29677   0.50000   0.01275
C          C       0.53468   0.61427   0.69425   0.55801
C          C       0.49095   0.70504   0.72245  -0.09692
C          C       0.38861   0.73155   0.71328   0.04085
C          C       0.30913   0.16603   0.81322   0.55300
C          C       0.35944   0.82245   0.73558  -0.15104
C          C       0.42957   0.88099   0.76888   0.09709
C          C       0.55593   0.26717   0.74103   0.07587
C          C       0.62518   0.58387   0.52138  -0.00507
C          C       0.71508   0.58344   0.41448  -0.02088
C          C       0.96532   0.61427   0.30576   0.55813
C          C       0.00905   0.70504   0.27755  -0.09660
C          C       0.11138   0.73155   0.28672   0.04094
C          C       0.19086   0.16603   0.18678   0.55333
C          C       0.14055   0.82245   0.26442  -0.15116
C          C       0.07043   0.88099   0.23112   0.09721
C          C       0.94407   0.26717   0.25897   0.07594
C          C       0.87482   0.58387   0.47863  -0.00524
C          C       0.78492   0.58344   0.58552  -0.02075
C          C       0.96480   0.11377   0.19474   0.55840
C          C       0.00810   0.20483   0.22321  -0.09724
C          C       0.11000   0.23182   0.21388   0.03887
C          C       0.19250   0.66489   0.31336   0.55229
C          C       0.13942   0.32293   0.23568  -0.14956
C          C       0.06987   0.38156   0.26888   0.09674
C          C       0.94443   0.76727   0.24181   0.07519
C          C       0.87485   0.08367   0.02214  -0.00263
C          C       0.78471   0.08338   0.91467  -0.02072
C          C       0.53521   0.11377   0.80526   0.55822
C          C       0.49190   0.20483   0.77679  -0.09728
C          C       0.38999   0.23182   0.78612   0.03894
C          C       0.30750   0.66489   0.68665   0.55238
C          C       0.36058   0.32293   0.76432  -0.14952
C          C       0.43012   0.38156   0.73112   0.09660
C          C       0.55557   0.76727   0.75819   0.07537
C          C       0.62515   0.08367   0.97786  -0.00253
C          C       0.71529   0.08338   0.08533  -0.02070
C          C       0.75000   0.46020   0.50000  -0.00253
C          C       0.75000   0.70323   0.50000   0.01267
C          C       0.75000   0.96002   0.00000  -0.00374
C          C       0.75000   0.20311   0.00000   0.01516
N          N       0.02606   0.64702   0.71748  -0.24001
N          N       0.20292   0.97953   0.94441  -0.18589
N          N       0.16997   0.85602   0.03181  -0.20071
N          N       0.47393   0.64702   0.28252  -0.23987
N          N       0.29708   0.97953   0.05560  -0.18582
N          N       0.33003   0.85602   0.96819  -0.20073
N          N       0.47406   0.14722   0.21786  -0.23866
N          N       0.29703   0.47930   0.44471  -0.18583
N          N       0.33014   0.35585   0.53234  -0.20051
N          N       0.02593   0.14722   0.78214  -0.23854
N          N       0.20297   0.47930   0.55529  -0.18563
N          N       0.16986   0.35585   0.46767  -0.20056
N          N       0.52593   0.85277   0.78214  -0.23862
N          N       0.70297   0.52070   0.55529  -0.18568
N          N       0.66986   0.64415   0.46767  -0.20068
N          N       0.97407   0.85277   0.21786  -0.23864
N          N       0.79703   0.52070   0.44471  -0.18572
N          N       0.83014   0.64415   0.53234  -0.20045
N          N       0.97394   0.35298   0.28252  -0.23997
N          N       0.79708   0.02047   0.05560  -0.18566
N          N       0.83003   0.14398   0.96819  -0.20070
N          N       0.52606   0.35298   0.71748  -0.24001
N          N       0.70292   0.02047   0.94441  -0.18588
N          N       0.66997   0.14398   0.03181  -0.20079
O          O       0.12433   0.90945   0.78421  -0.55477
O          O       0.98486   0.43319   0.64933  -0.56205
O          O       0.75762   0.31349   0.63193  -0.54451
O          O       0.78775   0.40604   0.72590  -0.54073
O          O       0.37567   0.90945   0.21580  -0.55436
O          O       0.51514   0.43319   0.35067  -0.56181
O          O       0.74238   0.31349   0.36807  -0.54418
O          O       0.71225   0.40604   0.27411  -0.54087
O          O       0.37624   0.40898   0.28405  -0.55377
O          O       0.51486   0.93353   0.15020  -0.56225
O          O       0.73855   0.81082   0.13188  -0.54516
O          O       0.71267   0.90495   0.22574  -0.54073
O          O       0.12376   0.40898   0.71595  -0.55368
O          O       0.98514   0.93353   0.84980  -0.56210
O          O       0.76145   0.81082   0.86813  -0.54493
O          O       0.78733   0.90495   0.77426  -0.54100
O          O       0.62376   0.59102   0.71595  -0.55354
O          O       0.48514   0.06646   0.84980  -0.56200
O          O       0.26145   0.18918   0.86813  -0.54487
O          O       0.28733   0.09505   0.77426  -0.54087
O          O       0.87624   0.59102   0.28405  -0.55392
O          O       0.01486   0.06646   0.15020  -0.56225
O          O       0.23855   0.18918   0.13188  -0.54531
O          O       0.21267   0.09505   0.22575  -0.54076
O          O       0.87567   0.09055   0.21580  -0.55444
O          O       0.01514   0.56681   0.35067  -0.56179
O          O       0.24238   0.68651   0.36807  -0.54424
O          O       0.21225   0.59396   0.27411  -0.54087
O          O       0.62433   0.09055   0.78421  -0.55448
O          O       0.48486   0.56681   0.64933  -0.56202
O          O       0.25762   0.68651   0.63193  -0.54449
O          O       0.28775   0.59396   0.72590  -0.54065

