data_crystal

_audit_creation_method 'AiiDA-DDEC plugin'

_cell_length_a         9.40862
_cell_length_b        18.04007
_cell_length_c        21.38767

_cell_angle_alpha     113.11038
_cell_angle_beta     90.03081
_cell_angle_gamma     105.17763

_symmetry_space_group_name_Hall 'P 1'
_symmetry_space_group_name_H-M  'P 1'

loop_
_symmetry_equiv_pos_as_xyz
 'x,y,z'

loop_
_atom_site_label
_atom_site_type_symbol
_atom_site_fract_x
_atom_site_fract_y
_atom_site_fract_z
_atom_site_charge
Cd         Cd      0.61462   0.46654   0.04591   0.89030
Cd         Cd      0.14853   0.53347   0.45387   0.89082
Cd         Cd      0.38538   0.53347   0.95409   0.89029
Cd         Cd      0.85147   0.46654   0.54614   0.89084
H          H       0.67417   0.62342   0.90093   0.11813
H          H       0.91344   0.72774   0.90989   0.10568
H          H       0.13256   0.74833   0.98682   0.10775
H          H       0.24171   0.70564   0.07144   0.11888
H          H       0.20836   0.61496   0.13500   0.11799
H          H       0.83955   0.45097   0.11641   0.10626
H          H       0.13541   0.55943   0.20665   0.10244
H          H       0.81062   0.35737   0.15790   0.11791
H          H       0.75229   0.28791   0.23951   0.11907
H          H       0.89973   0.35478   0.35541   0.10639
H          H       0.16335   0.54662   0.31089   0.09841
H          H       0.49246   0.15454   0.90585   0.11670
H          H       0.46507   0.00979   0.89434   0.10453
H          H       0.55970   0.10296   0.11365   0.10306
H          H       0.58681   0.24660   0.12325   0.10724
H          H       0.05156   0.37670   0.59919   0.11952
H          H       0.18598   0.27235   0.59004   0.10568
H          H       0.38399   0.25167   0.51303   0.10598
H          H       0.53573   0.29443   0.42836   0.11945
H          H       0.59334   0.38519   0.36493   0.11697
H          H       0.38879   0.54894   0.38345   0.10642
H          H       0.57601   0.44070   0.29335   0.10214
H          H       0.45352   0.64244   0.34188   0.11774
H          H       0.46441   0.71185   0.26028   0.11852
H          H       0.54508   0.64520   0.14449   0.10599
H          H       0.61692   0.45360   0.18910   0.09828
H          H       0.33779   0.84504   0.59383   0.11649
H          H       0.45455   0.99002   0.60558   0.10582
H          H       0.45611   0.89726   0.38624   0.10306
H          H       0.33999   0.75334   0.37657   0.10814
H          H       0.32584   0.37659   0.09907   0.11821
H          H       0.08656   0.27226   0.09012   0.10564
H          H       0.86744   0.25168   0.01319   0.10751
H          H       0.75829   0.29437   0.92857   0.11871
H          H       0.79165   0.38504   0.86500   0.11786
H          H       0.16045   0.54903   0.88359   0.10634
H          H       0.86459   0.44058   0.79335   0.10219
H          H       0.18939   0.64264   0.84210   0.11809
H          H       0.24771   0.71210   0.76050   0.11918
H          H       0.10027   0.64522   0.64459   0.10645
H          H       0.83666   0.45339   0.68911   0.09823
H          H       0.50755   0.84547   0.09415   0.11672
H          H       0.53494   0.99022   0.10566   0.10463
H          H       0.44031   0.89705   0.88635   0.10306
H          H       0.41320   0.75341   0.87676   0.10693
H          H       0.94845   0.62330   0.40081   0.11950
H          H       0.81403   0.72765   0.40997   0.10582
H          H       0.61601   0.74834   0.48697   0.10618
H          H       0.46428   0.70557   0.57165   0.11960
H          H       0.40667   0.61482   0.63507   0.11702
H          H       0.61122   0.45107   0.61655   0.10629
H          H       0.42399   0.55931   0.70665   0.10229
H          H       0.54649   0.35756   0.65813   0.11768
H          H       0.53559   0.28816   0.73973   0.11840
H          H       0.45493   0.35481   0.85552   0.10592
H          H       0.38309   0.54641   0.81090   0.09843
H          H       0.66222   0.15496   0.40618   0.11643
H          H       0.54545   0.00998   0.39442   0.10566
H          H       0.54389   0.10274   0.61376   0.10315
H          H       0.66001   0.24667   0.62343   0.10958
C          C       0.75068   0.58147   0.97188   0.26389
C          C       0.76919   0.63109   0.93427  -0.22615
C          C       0.90527   0.69029   0.93982  -0.05396
C          C       0.02784   0.70219   0.98251  -0.19176
C          C       0.01546   0.65365   0.02153   0.05634
C          C       0.87764   0.59292   0.01644   0.08320
C          C       0.13433   0.66122   0.06666  -0.08076
C          C       0.11570   0.61134   0.10244  -0.17333
C          C       0.97536   0.55291   0.09554   0.24284
C          C       0.94502   0.50007   0.13326  -0.16089
C          C       0.03180   0.50896   0.18769  -0.11519
C          C       0.99218   0.45911   0.22786   0.07050
C          C       0.87503   0.38427   0.20802  -0.08581
C          C       0.84206   0.34578   0.25349  -0.14402
C          C       0.92477   0.38185   0.31784   0.07982
C          C       0.07194   0.48899   0.29271   0.03211
C          C       0.56135   0.29786   0.02152   0.54418
C          C       0.54164   0.21009   0.01518  -0.03167
C          C       0.50701   0.14213   0.95092  -0.09487
C          C       0.49151   0.06070   0.94508  -0.13567
C          C       0.50916   0.04348   0.00308   0.06671
C          C       0.54441   0.11262   0.06735  -0.13877
C          C       0.56041   0.19406   0.07332  -0.09987
C          C       0.16946   0.41837   0.52777   0.26514
C          C       0.13859   0.36909   0.56572  -0.23021
C          C       0.21525   0.30988   0.56016  -0.05310
C          C       0.32568   0.29787   0.51742  -0.19058
C          C       0.36188   0.34634   0.47833   0.05551
C          C       0.28506   0.40698   0.48338   0.08414
C          C       0.47285   0.33876   0.43315  -0.08215
C          C       0.50433   0.38872   0.39742  -0.17199
C          C       0.42260   0.44707   0.40431   0.24275
C          C       0.44508   0.49992   0.36660  -0.16159
C          C       0.52291   0.49107   0.31222  -0.11598
C          C       0.53331   0.54089   0.27203   0.07157
C          C       0.49101   0.61561   0.29182  -0.08640
C          C       0.49640   0.65410   0.24636  -0.14284
C          C       0.54309   0.61816   0.18207   0.08057
C          C       0.58320   0.51115   0.20723   0.02933
C          C       0.26519   0.70199   0.47804   0.54473
C          C       0.33247   0.78981   0.48456  -0.03426
C          C       0.36501   0.85765   0.54887  -0.09268
C          C       0.43049   0.93919   0.55481  -0.13871
C          C       0.46546   0.95652   0.49686   0.06895
C          C       0.43151   0.88749   0.43252  -0.13923
C          C       0.36648   0.80597   0.42646  -0.10034
C          C       0.24932   0.41854   0.02812   0.26379
C          C       0.23082   0.36891   0.06573  -0.22600
C          C       0.09473   0.30972   0.06018  -0.05421
C          C       0.97216   0.29782   0.01749  -0.19170
C          C       0.98455   0.34636   0.97847   0.05613
C          C       0.12236   0.40709   0.98357   0.08320
C          C       0.86568   0.33878   0.93335  -0.08071
C          C       0.88430   0.38867   0.89756  -0.17337
C          C       0.02465   0.44710   0.90447   0.24284
C          C       0.05498   0.49993   0.86674  -0.16080
C          C       0.96821   0.49104   0.81231  -0.11527
C          C       0.00782   0.54090   0.77214   0.07049
C          C       0.12498   0.61573   0.79198  -0.08576
C          C       0.15795   0.65423   0.74652  -0.14382
C          C       0.07523   0.61816   0.68216   0.07992
C          C       0.92807   0.51102   0.70729   0.03204
C          C       0.43865   0.70215   0.97848   0.54426
C          C       0.45837   0.78992   0.98483  -0.03176
C          C       0.49300   0.85787   0.04909  -0.09485
C          C       0.50849   0.93930   0.05493  -0.13538
C          C       0.49085   0.95653   0.99693   0.06682
C          C       0.45560   0.88739   0.93265  -0.13897
C          C       0.43960   0.80595   0.92669  -0.09968
C          C       0.83055   0.58164   0.47223   0.26504
C          C       0.86142   0.63092   0.43428  -0.23011
C          C       0.78476   0.69012   0.43985  -0.05316
C          C       0.67433   0.70214   0.48258  -0.19055
C          C       0.63812   0.65367   0.52167   0.05550
C          C       0.71494   0.59302   0.51663   0.08427
C          C       0.52716   0.66125   0.56685  -0.08199
C          C       0.49568   0.61129   0.60259  -0.17219
C          C       0.57741   0.55294   0.59569   0.24279
C          C       0.55492   0.50009   0.63340  -0.16152
C          C       0.47710   0.50894   0.68779  -0.11595
C          C       0.46670   0.45911   0.72798   0.07132
C          C       0.50900   0.38440   0.70819  -0.08645
C          C       0.50360   0.34591   0.75365  -0.14302
C          C       0.45691   0.38184   0.81793   0.08037
C          C       0.41680   0.48886   0.79277   0.02942
C          C       0.73481   0.29802   0.52197   0.54443
C          C       0.66753   0.21020   0.51545  -0.03448
C          C       0.63499   0.14235   0.45113  -0.09251
C          C       0.56952   0.06082   0.44519  -0.13895
C          C       0.53454   0.04349   0.50315   0.06889
C          C       0.56849   0.11252   0.56748  -0.13957
C          C       0.63353   0.19404   0.57354  -0.10066
N          N       0.86130   0.54506   0.05320  -0.32033
N          N       0.03912   0.45242   0.33679  -0.23635
N          N       0.31655   0.45485   0.44662  -0.32036
N          N       0.58702   0.54776   0.16318  -0.23552
N          N       0.13871   0.45495   0.94680  -0.32005
N          N       0.96089   0.54759   0.66321  -0.23655
N          N       0.68345   0.54515   0.55339  -0.32049
N          N       0.41299   0.45225   0.83682  -0.23523
O          O       0.62400   0.52576   0.96833  -0.55554
O          O       0.53595   0.31117   0.96915  -0.55337
O          O       0.60756   0.35780   0.08139  -0.58064
O          O       0.09842   0.47369   0.53075  -0.55602
O          O       0.22845   0.68852   0.53049  -0.55212
O          O       0.24999   0.64216   0.41805  -0.58108
O          O       0.37600   0.47425   0.03168  -0.55527
O          O       0.46406   0.68884   0.03085  -0.55315
O          O       0.39244   0.64221   0.91862  -0.58096
O          O       0.90159   0.52632   0.46926  -0.55619
O          O       0.77156   0.31149   0.46952  -0.55220
O          O       0.75002   0.35785   0.58196  -0.58073

