data_crystal

_audit_creation_method 'AiiDA-DDEC plugin'

_cell_length_a        15.89449
_cell_length_b        15.89316
_cell_length_c        19.28395

_cell_angle_alpha     114.48019
_cell_angle_beta     114.47055
_cell_angle_gamma     89.84525

_symmetry_space_group_name_Hall 'P 1'
_symmetry_space_group_name_H-M  'P 1'

loop_
_symmetry_equiv_pos_as_xyz
 'x,y,z'

loop_
_atom_site_label
_atom_site_type_symbol
_atom_site_fract_x
_atom_site_fract_y
_atom_site_fract_z
_atom_site_charge
Zn         Zn      0.34515   0.59494   0.25028   0.97936
Zn         Zn      0.90507   0.15489   0.24973   0.97935
Zn         Zn      0.15631   0.34355   0.74994   0.98054
Zn         Zn      0.59526   0.90476   0.75002   0.97930
Zn         Zn      0.65484   0.40507   0.74973   0.97944
Zn         Zn      0.09493   0.84512   0.75027   0.97934
Zn         Zn      0.84369   0.65645   0.25006   0.98046
Zn         Zn      0.40474   0.09525   0.24999   0.97940
H          H       0.24962   0.37687   0.00016   0.14813
H          H       0.24986   0.06285  -0.00021   0.15423
H          H       0.75055   0.12397   0.00041   0.14850
H          H       0.75020   0.43751  -0.00033   0.15355
H          H       0.12315   0.25036   0.49985   0.14826
H          H       0.43713   0.25020   0.50019   0.15433
H          H       0.37605   0.74945   0.49957   0.14841
H          H       0.06256   0.74980   0.50036   0.15337
H          H       0.75038   0.62313  -0.00016   0.14813
H          H       0.75014   0.93715   0.00021   0.15422
H          H       0.24945   0.87603  -0.00041   0.14846
H          H       0.24980   0.56249   0.00033   0.15356
H          H       0.87684   0.74964   0.50015   0.14808
H          H       0.56287   0.74980   0.49981   0.15451
H          H       0.62395   0.25055   0.50043   0.14853
H          H       0.93743   0.25020   0.49964   0.15320
C          C       0.29447   0.30373   0.07745   0.03346
C          C       0.29633   0.21324   0.07728   0.03928
C          C       0.34573   0.39430   0.15685   0.54353
C          C       0.33628   0.20495   0.15898   0.54127
C          C       0.78332   0.27453   0.07743   0.03230
C          C       0.78170   0.36482   0.07723   0.04152
C          C       0.81068   0.26380   0.15685   0.54410
C          C       0.82408   0.45483   0.15903   0.54319
C          C       0.27357   0.29457   0.57724   0.03191
C          C       0.36395   0.29635   0.57735   0.04034
C          C       0.26226   0.34597   0.65645   0.54576
C          C       0.45380   0.33675   0.65929   0.54325
C          C       0.30345   0.78250   0.57732   0.03331
C          C       0.21310   0.78115   0.57748   0.03923
C          C       0.39404   0.80978   0.65659   0.54648
C          C       0.20558   0.82425   0.65953   0.54485
C          C       0.20538   0.22643   0.92277   0.03202
C          C       0.20363   0.13604   0.92266   0.04024
C          C       0.15385   0.23765   0.84354   0.54563
C          C       0.16325   0.04618   0.84072   0.54358
C          C       0.71757   0.19660   0.92271   0.03305
C          C       0.71891   0.28696   0.92255   0.03924
C          C       0.69028   0.10599   0.84343   0.54719
C          C       0.67581   0.29449   0.84051   0.54533
C          C       0.22552   0.71671   0.42260   0.03243
C          C       0.13525   0.71830   0.42280   0.04118
C          C       0.23627   0.68936   0.34319   0.54465
C          C       0.04526   0.67590   0.34100   0.54272
C          C       0.19628   0.20552   0.42255   0.03338
C          C       0.28675   0.20367   0.42271   0.03937
C          C       0.10570   0.15427   0.34316   0.54356
C          C       0.29501   0.16373   0.34100   0.54188
C          C       0.70553   0.69627   0.92255   0.03368
C          C       0.70367   0.78676   0.92272   0.03926
C          C       0.65426   0.60571   0.84315   0.54352
C          C       0.66372   0.79506   0.84102   0.54168
C          C       0.21668   0.72547   0.92258   0.03244
C          C       0.21830   0.63518   0.92278   0.04161
C          C       0.18932   0.73621   0.84316   0.54433
C          C       0.17591   0.54517   0.84098   0.54312
C          C       0.72643   0.70543   0.42276   0.03179
C          C       0.63605   0.70365   0.42265   0.04033
C          C       0.73774   0.65403   0.34356   0.54587
C          C       0.54620   0.66325   0.34072   0.54331
C          C       0.69655   0.21751   0.42269   0.03316
C          C       0.78690   0.21885   0.42253   0.03926
C          C       0.60596   0.19022   0.34341   0.54665
C          C       0.79442   0.17575   0.34047   0.54500
C          C       0.79461   0.77357   0.07724   0.03197
C          C       0.79637   0.86396   0.07735   0.03992
C          C       0.84614   0.76236   0.15647   0.54561
C          C       0.83674   0.95383   0.15929   0.54359
C          C       0.28243   0.80340   0.07730   0.03283
C          C       0.28109   0.71305   0.07746   0.03924
C          C       0.30972   0.89402   0.15657   0.54701
C          C       0.32419   0.70552   0.15950   0.54536
C          C       0.77448   0.28330   0.57741   0.03240
C          C       0.86475   0.28171   0.57720   0.04125
C          C       0.76373   0.31065   0.65682   0.54465
C          C       0.95474   0.32410   0.65900   0.54248
C          C       0.80372   0.79449   0.57746   0.03345
C          C       0.71325   0.79633   0.57729   0.03932
C          C       0.89430   0.84573   0.65684   0.54351
C          C       0.70499   0.83628   0.65901   0.54184
C          C       0.24989   0.30840   0.00017  -0.13051
C          C       0.24997   0.13129  -0.00012  -0.11189
C          C       0.75047   0.19233   0.00017  -0.12989
C          C       0.75033   0.36917  -0.00019  -0.11316
C          C       0.19162   0.25009   0.49984  -0.13077
C          C       0.36870   0.25004   0.50011  -0.11224
C          C       0.30771   0.74958   0.49984  -0.13027
C          C       0.13089   0.74969   0.50022  -0.11279
C          C       0.75011   0.69161  -0.00017  -0.13060
C          C       0.75002   0.86871   0.00012  -0.11173
C          C       0.24953   0.80767  -0.00017  -0.12968
C          C       0.24966   0.63083   0.00019  -0.11329
C          C       0.80838   0.74991   0.50017  -0.13079
C          C       0.63130   0.74997   0.49989  -0.11221
C          C       0.69229   0.25043   0.50016  -0.13011
C          C       0.86911   0.25032   0.49978  -0.11284
O          O       0.29695   0.45661   0.17500  -0.47994
O          O       0.43333   0.40401   0.19439  -0.33411
O          O       0.36971   0.13048   0.15665  -0.50703
O          O       0.32804   0.26684   0.22054  -0.35766
O          O       0.87536   0.21697   0.17384  -0.48133
O          O       0.76221   0.29456   0.19545  -0.33344
O          O       0.78744   0.52669   0.15753  -0.50928
O          O       0.89520   0.45430   0.21951  -0.35273
O          O       0.21856   0.29699   0.67451  -0.48203
O          O       0.28932   0.43359   0.69375  -0.33444
O          O       0.52577   0.37013   0.65699  -0.50893
O          O       0.45357   0.32922   0.72103  -0.35774
O          O       0.45695   0.87578   0.67461  -0.48090
O          O       0.40320   0.76014   0.69428  -0.33570
O          O       0.13254   0.78811   0.65857  -0.50995
O          O       0.26692   0.89521   0.71977  -0.35629
O          O       0.20269   0.28116   0.82523  -0.48144
O          O       0.06625   0.21060   0.80641  -0.33481
O          O       0.12983   0.97421   0.84299  -0.50882
O          O       0.17088   0.04641   0.77902  -0.35820
O          O       0.62424   0.04312   0.82541  -0.48119
O          O       0.73994   0.09678   0.80575  -0.33602
O          O       0.71193   0.36753   0.84147  -0.51039
O          O       0.60485   0.23314   0.78027  -0.35650
O          O       0.28310   0.62468   0.32620  -0.48159
O          O       0.20553   0.73783   0.30458  -0.33372
O          O       0.97343   0.71258   0.34255  -0.50873
O          O       0.04575   0.60481   0.28047  -0.35280
O          O       0.04339   0.20307   0.32507  -0.47997
O          O       0.09598   0.06667   0.30559  -0.33412
O          O       0.36946   0.13029   0.34330  -0.50731
O          O       0.23310   0.17196   0.27946  -0.35797
O          O       0.70305   0.54339   0.82501  -0.48020
O          O       0.56667   0.59599   0.80561  -0.33401
O          O       0.63028   0.86952   0.84336  -0.50676
O          O       0.67196   0.73316   0.77946  -0.35838
O          O       0.12464   0.78303   0.82617  -0.48117
O          O       0.23779   0.70544   0.80456  -0.33398
O          O       0.21256   0.47332   0.84248  -0.50926
O          O       0.10480   0.54570   0.78049  -0.35284
O          O       0.78144   0.70302   0.32549  -0.48196
O          O       0.71067   0.56641   0.30625  -0.33466
O          O       0.47423   0.62987   0.34301  -0.50859
O          O       0.54643   0.67078   0.27898  -0.35816
O          O       0.54305   0.12422   0.32540  -0.48094
O          O       0.59680   0.23986   0.30572  -0.33583
O          O       0.86746   0.21189   0.34144  -0.51001
O          O       0.73307   0.10479   0.28023  -0.35655
O          O       0.79731   0.71884   0.17477  -0.48127
O          O       0.93375   0.78941   0.19360  -0.33487
O          O       0.87017   0.02579   0.15701  -0.50904
O          O       0.82912   0.95359   0.22099  -0.35782
O          O       0.37576   0.95689   0.17459  -0.48136
O          O       0.26006   0.90322   0.19426  -0.33555
O          O       0.28806   0.63247   0.15853  -0.51041
O          O       0.39515   0.76686   0.21974  -0.35641
O          O       0.71690   0.37533   0.67381  -0.48152
O          O       0.79447   0.26218   0.69542  -0.33368
O          O       0.02656   0.28743   0.65745  -0.50894
O          O       0.95425   0.39520   0.71954  -0.35228
O          O       0.95661   0.79693   0.67494  -0.48007
O          O       0.90402   0.93334   0.69442  -0.33392
O          O       0.63054   0.86972   0.65671  -0.50717
O          O       0.76690   0.82804   0.72054  -0.35784

