data_crystal

_audit_creation_method 'AiiDA-DDEC plugin'

_cell_length_a        15.88941
_cell_length_b        15.89194
_cell_length_c        15.89178

_cell_angle_alpha     72.64627
_cell_angle_beta     72.60809
_cell_angle_gamma     72.60779

_symmetry_space_group_name_Hall 'P 1'
_symmetry_space_group_name_H-M  'P 1'

loop_
_symmetry_equiv_pos_as_xyz
 'x,y,z'

loop_
_atom_site_label
_atom_site_type_symbol
_atom_site_fract_x
_atom_site_fract_y
_atom_site_fract_z
_atom_site_charge
Cu         Cu      0.48358   0.05309   0.05383   0.85914
Cu         Cu      0.05383   0.48364   0.05306   0.85902
Cu         Cu      0.51642   0.94691   0.94617   0.85900
Cu         Cu      0.05309   0.05381   0.48363   0.85926
Cu         Cu      0.94692   0.94619   0.51637   0.85922
Cu         Cu      0.94617   0.51637   0.94694   0.85905
H          H       0.89771   0.64976   0.77028   0.11045
H          H       0.40894   0.80568   0.66300   0.08263
H          H       0.64981   0.77024   0.89769   0.11042
H          H       0.75673   0.11698   0.34240   0.13337
H          H       0.88696   0.23631   0.65314   0.13736
H          H       0.02359   0.74921   0.74165   0.13307
H          H       0.23635   0.65319   0.88693   0.13693
H          H       0.76366   0.34682   0.11306   0.13695
H          H       0.27979   0.64967   0.10449   0.09069
H          H       0.19430   0.33698   0.59117   0.08270
H          H       0.97641   0.25080   0.25834   0.13323
H          H       0.10229   0.35025   0.22972   0.11030
H          H       0.11304   0.76369   0.34686   0.13710
H          H       0.34252   0.75667   0.11686   0.13335
H          H       0.35018   0.89546   0.72033   0.09086
H          H       0.34694   0.11296   0.76360   0.13707
H          H       0.80570   0.66303   0.40882   0.08251
H          H       0.82572   0.65154   0.64887   0.10617
H          H       0.06589   0.18540   0.58049   0.10693
H          H       0.65307   0.88705   0.23640   0.13707
H          H       0.72021   0.35034   0.89551   0.09053
H          H       0.11696   0.34245   0.75674   0.13335
H          H       0.25080   0.25836   0.97636   0.13321
H          H       0.34840   0.35123   0.17427   0.10771
H          H       0.25577   0.47041   0.32578   0.11994
H          H       0.77023   0.89774   0.64983   0.11034
H          H       0.33708   0.59102   0.19424   0.08265
H          H       0.89549   0.72029   0.35012   0.08966
H          H       0.66292   0.40899   0.80576   0.08260
H          H       0.18542   0.58039   0.06593   0.10691
H          H       0.47036   0.32586   0.25576   0.11985
H          H       0.74423   0.52959   0.67421   0.11994
H          H       0.41956   0.93412   0.81459   0.10709
H          H       0.74921   0.74165   0.02363   0.13323
H          H       0.22977   0.10227   0.35017   0.11032
H          H       0.24327   0.88303   0.65759   0.13352
H          H       0.64983   0.10454   0.27967   0.09071
H          H       0.25836   0.97637   0.25079   0.13338
H          H       0.74165   0.02363   0.74920   0.13319
H          H       0.35020   0.22977   0.10231   0.11030
H          H       0.88305   0.65756   0.24326   0.13334
H          H       0.65748   0.24334   0.88314   0.13329
H          H       0.65160   0.64877   0.82572   0.10768
H          H       0.52964   0.67414   0.74423   0.11976
H          H       0.10452   0.27972   0.64988   0.08961
H          H       0.32584   0.25575   0.47033   0.12001
H          H       0.93411   0.81460   0.41951   0.10702
H          H       0.35120   0.17427   0.34833   0.10777
H          H       0.17428   0.34847   0.35113   0.10605
H          H       0.67416   0.74425   0.52966   0.11985
H          H       0.81458   0.41962   0.93406   0.10677
H          H       0.58044   0.06589   0.18541   0.10700
H          H       0.64881   0.82574   0.65167   0.10762
H          H       0.59107   0.19432   0.33700   0.08264
C          C       0.82086   0.59922   0.71129  -0.13504
C          C       0.17915   0.40078   0.28871  -0.13533
C          C       0.07802   0.62280   0.88703   0.58876
C          C       0.12468   0.69381   0.82193  -0.00907
C          C       0.69376   0.82199   0.12474  -0.00799
C          C       0.46825   0.27416   0.22477  -0.09361
C          C       0.16735   0.79371   0.29969  -0.20001
C          C       0.27088   0.61305   0.17610  -0.02223
C          C       0.77088   0.46555   0.80735   0.03206
C          C       0.87035   0.17816   0.30701   0.00175
C          C       0.17808   0.87529   0.30621  -0.00866
C          C       0.27413   0.22476   0.46824  -0.09359
C          C       0.37952   0.91509   0.11206   0.58319
C          C       0.91511   0.11213   0.37949   0.58423
C          C       0.17817   0.30702   0.87032   0.00154
C          C       0.08489   0.88787   0.62051   0.58407
C          C       0.30625   0.17802   0.87526  -0.00806
C          C       0.77309   0.25020   0.76727   0.23849
C          C       0.11297   0.92197   0.37725   0.58841
C          C       0.77861   0.86065   0.59912   0.09151
C          C       0.62276   0.88709   0.07805   0.58788
C          C       0.40089   0.22140   0.13939   0.09131
C          C       0.24893   0.91320   0.24609  -0.13122
C          C       0.86063   0.59908   0.77863   0.09159
C          C       0.40073   0.28878   0.17915  -0.13651
C          C       0.74984   0.23277   0.22686   0.23829
C          C       0.77523   0.53172   0.72589  -0.09379
C          C       0.88704   0.07804   0.62275   0.58854
C          C       0.29977   0.16726   0.79366  -0.20019
C          C       0.19266   0.22910   0.53448   0.03176
C          C       0.37724   0.11292   0.92195   0.58798
C          C       0.12965   0.82184   0.69299   0.00166
C          C       0.83265   0.20629   0.70031  -0.19991
C          C       0.28875   0.17914   0.40070  -0.13661
C          C       0.52968   0.12955   0.18649   0.03884
C          C       0.78814   0.17085   0.29643  -0.23091
C          C       0.18649   0.52965   0.12957   0.03870
C          C       0.24614   0.24889   0.91319  -0.13158
C          C       0.17086   0.29644   0.78812  -0.23033
C          C       0.08676   0.75389   0.75110  -0.13130
C          C       0.82184   0.69298   0.12968   0.00164
C          C       0.13938   0.40092   0.22136   0.09138
C          C       0.62048   0.08492   0.88794   0.58327
C          C       0.71125   0.82086   0.59930  -0.13648
C          C       0.29652   0.78809   0.17077  -0.23070
C          C       0.46554   0.80733   0.77090   0.03204
C          C       0.59927   0.71123   0.82085  -0.13655
C          C       0.75108   0.08681   0.75390  -0.13133
C          C       0.82914   0.70356   0.21188  -0.23048
C          C       0.92198   0.37721   0.11297   0.58844
C          C       0.70349   0.21192   0.82923  -0.23068
C          C       0.72912   0.38696   0.82390  -0.02233
C          C       0.21186   0.82915   0.70357  -0.23070
C          C       0.22139   0.13935   0.40088   0.09154
C          C       0.76718   0.77318   0.25020   0.23843
C          C       0.81351   0.47035   0.87043   0.03830
C          C       0.69294   0.12971   0.82189   0.00139
C          C       0.38690   0.82386   0.72919  -0.02227
C          C       0.22477   0.46829   0.27410  -0.09346
C          C       0.87044   0.81353   0.47029   0.03920
C          C       0.87532   0.30619   0.17806  -0.00885
C          C       0.11212   0.37951   0.91513   0.58456
C          C       0.30706   0.87030   0.17810   0.00133
C          C       0.91324   0.24611   0.24889  -0.13145
C          C       0.20628   0.70032   0.83267  -0.19970
C          C       0.53447   0.19267   0.22909   0.03200
C          C       0.17614   0.27081   0.61314  -0.02101
C          C       0.23282   0.22683   0.74980   0.23837
C          C       0.75387   0.75112   0.08681  -0.13172
C          C       0.59912   0.77861   0.86061   0.09122
C          C       0.61311   0.17615   0.27081  -0.02234
C          C       0.82386   0.72920   0.38685  -0.02108
C          C       0.47033   0.87045   0.81350   0.03880
C          C       0.25017   0.76724   0.77314   0.23829
C          C       0.80734   0.77091   0.46551   0.03178
C          C       0.82192   0.12471   0.69379  -0.00874
C          C       0.12956   0.18647   0.52971   0.03907
C          C       0.22912   0.53445   0.19265   0.03184
C          C       0.79372   0.29968   0.16733  -0.19965
C          C       0.22691   0.74981   0.23273   0.23866
C          C       0.70024   0.83274   0.20634  -0.20018
C          C       0.53175   0.72585   0.77523  -0.09382
C          C       0.72587   0.77524   0.53176  -0.09383
C          C       0.88789   0.62050   0.08486   0.58456
N          N       0.85721   0.53560   0.85693  -0.22806
N          N       0.85693   0.85724   0.53557  -0.22832
N          N       0.14308   0.14277   0.46443  -0.22852
N          N       0.14279   0.46440   0.14307  -0.22821
N          N       0.53562   0.85694   0.85718  -0.22826
N          N       0.46439   0.14306   0.14282  -0.22857
O          O       0.60747   0.01897   0.86698  -0.55220
O          O       0.39041   0.13411   0.98765  -0.53779
O          O       0.98106   0.13305   0.39254  -0.55240
O          O       0.13307   0.39257   0.98105  -0.55259
O          O       0.42115   0.88513   0.04096  -0.54849
O          O       0.10756   0.58114   0.95851  -0.55110
O          O       0.88511   0.04110   0.42110  -0.54949
O          O       0.41899   0.04141   0.89240  -0.55066
O          O       0.57886   0.11488   0.95904  -0.54842
O          O       0.23424   0.20800   0.67010  -0.21421
O          O       0.89244   0.41887   0.04149  -0.55114
O          O       0.13416   0.98762   0.39051  -0.53742
O          O       0.01236   0.60952   0.86585  -0.53796
O          O       0.20807   0.67013   0.23414  -0.21406
O          O       0.95855   0.10756   0.58105  -0.55077
O          O       0.01894   0.86696   0.60745  -0.55269
O          O       0.11489   0.95891   0.57890  -0.54909
O          O       0.95900   0.57890   0.11478  -0.54889
O          O       0.32987   0.76582   0.79196  -0.21425
O          O       0.60959   0.86590   0.01234  -0.53791
O          O       0.98764   0.39049   0.13414  -0.53770
O          O       0.04101   0.42111   0.88522  -0.54897
O          O       0.39253   0.98103   0.13302  -0.55208
O          O       0.86693   0.60743   0.01895  -0.55266
O          O       0.86584   0.01238   0.60949  -0.53778
O          O       0.67013   0.23418   0.20803  -0.21413
O          O       0.79194   0.32987   0.76586  -0.21375
O          O       0.58102   0.95859   0.10760  -0.55048
O          O       0.76577   0.79200   0.32990  -0.21405
O          O       0.04146   0.89245   0.41894  -0.55104

