data_crystal

_audit_creation_method 'AiiDA-DDEC plugin'

_cell_length_a         7.85079
_cell_length_b        14.70349
_cell_length_c        26.77160

_cell_angle_alpha     89.98746
_cell_angle_beta     90.04036
_cell_angle_gamma     89.97142

_symmetry_space_group_name_Hall 'P 1'
_symmetry_space_group_name_H-M  'P 1'

loop_
_symmetry_equiv_pos_as_xyz
 'x,y,z'

loop_
_atom_site_label
_atom_site_type_symbol
_atom_site_fract_x
_atom_site_fract_y
_atom_site_fract_z
_atom_site_charge
Cd         Cd      0.61340   0.76525   0.66189   0.86537
Cd         Cd      0.76622   0.17106   0.60210   0.86601
Cd         Cd      0.38672   0.73562   0.16197   0.86678
Cd         Cd      0.23311   0.33036   0.10183   0.86436
Cd         Cd      0.38661   0.23474   0.33811   0.86542
Cd         Cd      0.23379   0.82893   0.39790   0.86622
Cd         Cd      0.61329   0.26437   0.83803   0.86687
Cd         Cd      0.76690   0.66964   0.89817   0.86443
H          H       0.07369   0.73731   0.72118   0.12971
H          H       0.82947   0.72748   0.78033   0.10509
H          H       0.15625   0.71347   0.90197   0.09867
H          H       0.22883   0.75776   0.64716   0.10139
H          H       0.56031   0.96405   0.60699   0.10994
H          H       0.31548   0.06188   0.57711   0.13058
H          H       0.47910   0.55734   0.64721   0.12003
H          H       0.43379   0.44188   0.58093   0.13147
H          H       0.57555   0.64982   0.47310   0.13577
H          H       0.62824   0.75209   0.54462   0.11719
H          H       0.95320   0.72681   0.00744   0.11352
H          H       0.05812   0.86518   0.04801   0.12300
H          H       0.85626   0.01867   0.92264   0.12312
H          H       0.74647   0.87366   0.88951   0.09983
H          H       0.92553   0.76260   0.22125   0.12947
H          H       0.17064   0.76937   0.28013   0.10609
H          H       0.84659   0.78051   0.40229   0.09747
H          H       0.77004   0.74317   0.14750   0.10042
H          H       0.44178   0.53569   0.10673   0.10983
H          H       0.68813   0.44000   0.07613   0.13167
H          H       0.52262   0.94324   0.14726   0.11893
H          H       0.56456   0.05895   0.08088   0.13178
H          H       0.42965   0.84950   0.97317   0.13597
H          H       0.38039   0.74694   0.04470   0.11702
H          H       0.04966   0.77315   0.50736   0.11412
H          H       0.94385   0.63462   0.54810   0.12290
H          H       0.14317   0.48096   0.42265   0.12343
H          H       0.25396   0.62566   0.38950   0.09988
H          H       0.92632   0.26268   0.27883   0.12990
H          H       0.17053   0.27252   0.21968   0.10514
H          H       0.84376   0.28652   0.09803   0.09840
H          H       0.77118   0.24223   0.35284   0.10113
H          H       0.43970   0.03594   0.39301   0.10980
H          H       0.68452   0.93812   0.42290   0.13085
H          H       0.52091   0.44265   0.35279   0.11989
H          H       0.56622   0.55811   0.41908   0.13123
H          H       0.42446   0.35017   0.52690   0.13604
H          H       0.37177   0.24791   0.45538   0.11735
H          H       0.04681   0.27319   0.99257   0.11332
H          H       0.94189   0.13482   0.95199   0.12282
H          H       0.14375   0.98132   0.07736   0.12337
H          H       0.25354   0.12633   0.11049   0.09998
H          H       0.07448   0.23739   0.77876   0.12971
H          H       0.82937   0.23062   0.71988   0.10606
H          H       0.15342   0.21949   0.59771   0.09730
H          H       0.22997   0.25683   0.85250   0.10060
H          H       0.55823   0.46430   0.89327   0.10992
H          H       0.31187   0.55999   0.92388   0.13161
H          H       0.47739   0.05675   0.85275   0.11881
H          H       0.43545   0.94104   0.91912   0.13181
H          H       0.57036   0.15049   0.02683   0.13616
H          H       0.61961   0.25306   0.95531   0.11694
H          H       0.95035   0.22685   0.49265   0.11424
H          H       0.05615   0.36537   0.45190   0.12279
H          H       0.85683   0.51903   0.57736   0.12326
H          H       0.74604   0.37433   0.61050   0.09984
C          C       0.40805   0.72908   0.74217   0.56348
C          C       0.26509   0.72609   0.77947   0.02318
C          C       0.09803   0.73077   0.76096  -0.14160
C          C       0.96082   0.72644   0.79365   0.09603
C          C       0.14273   0.71975   0.86167   0.05217
C          C       0.28773   0.72229   0.83147  -0.07659
C          C       0.45588   0.71007   0.85671   0.55976
C          C       0.92543   0.83249   0.62158   0.56768
C          C       0.09847   0.87571   0.61711  -0.05792
C          C       0.24178   0.82575   0.63156   0.03857
C          C       0.42851   0.94113   0.60879   0.08673
C          C       0.29302   0.99452   0.59253  -0.13955
C          C       0.12516   0.96291   0.59699   0.01601
C          C       0.98272   0.02867   0.58614   0.55415
C          C       0.50223   0.57339   0.60807   0.08410
C          C       0.47485   0.50998   0.57043  -0.17400
C          C       0.50714   0.53373   0.52037   0.09157
C          C       0.55556   0.62398   0.51077  -0.16819
C          C       0.58219   0.68312   0.55050   0.08347
C          C       0.92966   0.79312   0.99054   0.09972
C          C       0.99065   0.87231   0.01277  -0.16466
C          C       0.96754   0.95700   0.98918   0.09699
C          C       0.87951   0.95648   0.94349  -0.16895
C          C       0.81817   0.87520   0.92433   0.08685
C          C       0.59180   0.77054   0.24249   0.56288
C          C       0.73498   0.77236   0.27986   0.02442
C          C       0.90171   0.76784   0.26111  -0.14178
C          C       0.03961   0.77055   0.29364   0.09893
C          C       0.85906   0.77550   0.36193   0.05278
C          C       0.71319   0.77452   0.33199  -0.07823
C          C       0.54546   0.78743   0.35754   0.55725
C          C       0.07358   0.67119   0.12140   0.56895
C          C       0.90221   0.62648   0.11674  -0.05516
C          C       0.75812   0.67531   0.13169   0.03808
C          C       0.57315   0.55937   0.10856   0.08759
C          C       0.70959   0.50709   0.09196  -0.14145
C          C       0.87711   0.53939   0.09633   0.01215
C          C       0.02030   0.47407   0.08516   0.55320
C          C       0.50022   0.92689   0.10811   0.08540
C          C       0.52568   0.99046   0.07043  -0.17366
C          C       0.49412   0.96627   0.02039   0.09151
C          C       0.44892   0.87552   0.01083  -0.16882
C          C       0.42421   0.81627   0.05060   0.08680
C          C       0.07240   0.70665   0.49060   0.09724
C          C       0.01098   0.62759   0.51284  -0.16573
C          C       0.03294   0.54289   0.48920   0.09721
C          C       0.12069   0.54317   0.44352  -0.16830
C          C       0.18265   0.62429   0.42436   0.08690
C          C       0.59196   0.27092   0.25783   0.56335
C          C       0.73492   0.27391   0.22053   0.02336
C          C       0.90197   0.26922   0.23904  -0.14170
C          C       0.03919   0.27355   0.20636   0.09646
C          C       0.85727   0.28024   0.13833   0.05228
C          C       0.71228   0.27770   0.16853  -0.07681
C          C       0.54413   0.28993   0.14329   0.56014
C          C       0.07458   0.16750   0.37842   0.56787
C          C       0.90154   0.12428   0.38289  -0.05798
C          C       0.75823   0.17424   0.36844   0.03876
C          C       0.57150   0.05887   0.39121   0.08703
C          C       0.70698   0.00547   0.40747  -0.13966
C          C       0.87485   0.03708   0.40302   0.01628
C          C       0.01729   0.97132   0.41386   0.55389
C          C       0.49777   0.42660   0.39193   0.08409
C          C       0.52516   0.49002   0.42957  -0.17400
C          C       0.49287   0.46627   0.47963   0.09161
C          C       0.44445   0.37601   0.48923  -0.16833
C          C       0.41782   0.31687   0.44950   0.08373
C          C       0.07035   0.20687   0.00946   0.09940
C          C       0.00936   0.12768   0.98723  -0.16486
C          C       0.03246   0.04300   0.01083   0.09695
C          C       0.12050   0.04352   0.05651  -0.16885
C          C       0.18184   0.12480   0.07568   0.08725
C          C       0.40821   0.22946   0.75751   0.56261
C          C       0.26502   0.22763   0.72014   0.02459
C          C       0.09830   0.23216   0.73889  -0.14187
C          C       0.96040   0.22944   0.70636   0.09889
C          C       0.14095   0.22449   0.63808   0.05275
C          C       0.28682   0.22547   0.66801  -0.07834
C          C       0.45455   0.21256   0.64246   0.55691
C          C       0.92643   0.32881   0.87860   0.56886
C          C       0.09780   0.37351   0.88327  -0.05497
C          C       0.24189   0.32469   0.86832   0.03785
C          C       0.42686   0.44062   0.89144   0.08743
C          C       0.29042   0.49290   0.90804  -0.14138
C          C       0.12290   0.46061   0.90367   0.01197
C          C       0.97970   0.52593   0.91484   0.55395
C          C       0.49979   0.07310   0.89189   0.08546
C          C       0.47433   0.00953   0.92957  -0.17357
C          C       0.50589   0.03373   0.97961   0.09130
C          C       0.55108   0.12447   0.98918  -0.16898
C          C       0.57580   0.18372   0.94941   0.08694
C          C       0.92761   0.29334   0.50940   0.09717
C          C       0.98903   0.37240   0.48716  -0.16577
C          C       0.96707   0.45711   0.51081   0.09705
C          C       0.87931   0.45682   0.55648  -0.16832
C          C       0.81735   0.37570   0.57564   0.08711
N          N       0.98271   0.71914   0.84349  -0.25431
N          N       0.40264   0.85747   0.62806  -0.23229
N          N       0.56034   0.65803   0.59850  -0.24722
N          N       0.84282   0.79450   0.94711  -0.23557
N          N       0.01878   0.77610   0.34356  -0.25780
N          N       0.59782   0.64280   0.12826  -0.23314
N          N       0.44476   0.84176   0.09858  -0.24836
N          N       0.15873   0.70500   0.44714  -0.23186
N          N       0.01729   0.28086   0.15651  -0.25441
N          N       0.59737   0.14252   0.37194  -0.23287
N          N       0.43966   0.34197   0.40150  -0.24739
N          N       0.15719   0.20549   0.05289  -0.23558
N          N       0.98123   0.22390   0.65644  -0.25791
N          N       0.40219   0.35719   0.87174  -0.23285
N          N       0.55525   0.15823   0.90143  -0.24876
N          N       0.84128   0.29500   0.55287  -0.23148
O          O       0.52613   0.78739   0.74755  -0.54052
O          O       0.39360   0.67725   0.70420  -0.56632
O          O       0.55798   0.65102   0.83860  -0.52450
O          O       0.48476   0.75445   0.89677  -0.58803
O          O       0.88513   0.80489   0.66615  -0.54883
O          O       0.83641   0.82210   0.58327  -0.55143
O          O       0.84955   0.02268   0.61367  -0.53375
O          O       0.00840   0.09202   0.55512  -0.55581
O          O       0.47288   0.71268   0.24759  -0.53973
O          O       0.60722   0.82262   0.20463  -0.56690
O          O       0.44227   0.84505   0.33852  -0.52375
O          O       0.51726   0.74557   0.39852  -0.58792
O          O       0.11646   0.69496   0.16638  -0.54645
O          O       0.15841   0.68659   0.08281  -0.55338
O          O       0.15697   0.48177   0.11107  -0.53469
O          O       0.99161   0.40893   0.05540  -0.55547
O          O       0.47388   0.21260   0.25245  -0.54050
O          O       0.60641   0.32274   0.29581  -0.56629
O          O       0.44203   0.34897   0.16141  -0.52486
O          O       0.51525   0.24554   0.10323  -0.58818
O          O       0.11488   0.19511   0.33386  -0.54941
O          O       0.16360   0.17789   0.41673  -0.55105
O          O       0.15046   0.97731   0.38634  -0.53395
O          O       0.99160   0.90797   0.44488  -0.55532
O          O       0.52712   0.28731   0.75242  -0.53987
O          O       0.39278   0.17738   0.79538  -0.56644
O          O       0.55774   0.15495   0.66149  -0.52298
O          O       0.48275   0.25443   0.60148  -0.58826
O          O       0.88355   0.30504   0.83363  -0.54669
O          O       0.84160   0.31340   0.91720  -0.55308
O          O       0.84304   0.51822   0.88894  -0.53534
O          O       0.00839   0.59106   0.94461  -0.55560

