data_crystal

_audit_creation_method 'AiiDA-DDEC plugin'

_cell_length_a        13.33854
_cell_length_b        13.41451
_cell_length_c        26.73932

_cell_angle_alpha     90.00000
_cell_angle_beta     90.00180
_cell_angle_gamma     90.00000

_symmetry_space_group_name_Hall 'P 1'
_symmetry_space_group_name_H-M  'P 1'

loop_
_symmetry_equiv_pos_as_xyz
 'x,y,z'

loop_
_atom_site_label
_atom_site_type_symbol
_atom_site_fract_x
_atom_site_fract_y
_atom_site_fract_z
_atom_site_charge
Cd         Cd      0.81411   0.81027   0.82344   0.84562
Cd         Cd      0.18591   0.68973   0.32345   0.84555
Cd         Cd      0.31409   0.18973   0.67655   0.84537
Cd         Cd      0.68590   0.31027   0.17656   0.84552
Cd         Cd      0.18590   0.18973   0.17656   0.84552
Cd         Cd      0.81410   0.31027   0.67655   0.84539
Cd         Cd      0.68591   0.81026   0.32345   0.84556
Cd         Cd      0.31411   0.68973   0.82344   0.84557
H          H       0.81632   0.99715   0.75128   0.09616
H          H       0.04741   0.80422   0.79020   0.10469
H          H       0.67255   0.09276   0.75460   0.14083
H          H       0.78279   0.99572   0.89490   0.12360
H          H       0.86228   0.08784   0.96453   0.12605
H          H       0.07149   0.84219   0.97823   0.12792
H          H       0.98446   0.76300   0.90648   0.12241
H          H       0.18370   0.50285   0.25128   0.09637
H          H       0.95261   0.69578   0.29020   0.10450
H          H       0.32745   0.40724   0.25459   0.14048
H          H       0.21722   0.50428   0.39490   0.12377
H          H       0.13773   0.41215   0.46453   0.12595
H          H       0.92852   0.65781   0.47822   0.12744
H          H       0.01555   0.73700   0.40648   0.12237
H          H       0.31631   0.00285   0.74872   0.09605
H          H       0.54740   0.19578   0.70980   0.10457
H          H       0.17256   0.90724   0.74541   0.14092
H          H       0.28278   0.00428   0.60510   0.12379
H          H       0.36228   0.91215   0.53547   0.12579
H          H       0.57149   0.15781   0.52178   0.12768
H          H       0.48445   0.23700   0.59352   0.12247
H          H       0.68369   0.49715   0.24872   0.09628
H          H       0.45260   0.30422   0.20980   0.10453
H          H       0.82745   0.59277   0.24541   0.14042
H          H       0.71722   0.49572   0.10510   0.12377
H          H       0.63773   0.58784   0.03547   0.12585
H          H       0.42852   0.34219   0.02178   0.12561
H          H       0.51555   0.26300   0.09352   0.12249
H          H       0.18369   0.00285   0.24872   0.09629
H          H       0.95260   0.19578   0.20980   0.10452
H          H       0.32745   0.90723   0.24541   0.14054
H          H       0.21722   0.00428   0.10510   0.12378
H          H       0.13773   0.91216   0.03547   0.12587
H          H       0.92852   0.15781   0.02178   0.12561
H          H       0.01555   0.23700   0.09352   0.12248
H          H       0.81631   0.49715   0.74872   0.09604
H          H       0.04740   0.30422   0.70980   0.10457
H          H       0.67256   0.59276   0.74541   0.14090
H          H       0.78279   0.49572   0.60510   0.12376
H          H       0.86228   0.58785   0.53547   0.12574
H          H       0.07148   0.34219   0.52178   0.12767
H          H       0.98445   0.26300   0.59352   0.12248
H          H       0.68370   0.99715   0.25128   0.09638
H          H       0.45261   0.80421   0.29020   0.10456
H          H       0.82745   0.09276   0.25459   0.14047
H          H       0.71722   0.99572   0.39490   0.12374
H          H       0.63773   0.08785   0.46453   0.12595
H          H       0.42852   0.84219   0.47822   0.12748
H          H       0.51555   0.76300   0.40648   0.12243
H          H       0.31632   0.50285   0.75128   0.09616
H          H       0.54741   0.69578   0.79020   0.10470
H          H       0.17255   0.40724   0.75460   0.14081
H          H       0.28279   0.50428   0.89490   0.12362
H          H       0.36228   0.41216   0.96453   0.12605
H          H       0.57149   0.65781   0.97823   0.12793
H          H       0.48446   0.73700   0.90648   0.12238
C          C       0.64211   0.91717   0.80165   0.56289
C          C       0.56263   0.98213   0.77859   0.03244
C          C       0.45991   0.95835   0.77769  -0.09375
C          C       0.41727   0.86876   0.80378   0.55686
C          C       0.89569   0.97924   0.74918   0.07193
C          C       0.02494   0.87234   0.77108   0.09463
C          C       0.59424   0.06957   0.75446  -0.15090
C          C       0.84710   0.96510   0.91467   0.08434
C          C       0.89250   0.01563   0.95399  -0.16987
C          C       0.97513   0.97385   0.97890   0.09953
C          C       0.00800   0.88039   0.96145  -0.17464
C          C       0.95957   0.83433   0.92153   0.08207
C          C       0.35790   0.58283   0.30166   0.56327
C          C       0.43737   0.51787   0.27860   0.03244
C          C       0.54010   0.54165   0.27769  -0.09379
C          C       0.58274   0.63124   0.30378   0.55684
C          C       0.10432   0.52076   0.24919   0.07204
C          C       0.97508   0.62765   0.27109   0.09452
C          C       0.40576   0.43043   0.25447  -0.15097
C          C       0.15291   0.53490   0.41467   0.08451
C          C       0.10751   0.48437   0.45399  -0.16970
C          C       0.02488   0.52615   0.47890   0.09914
C          C       0.99201   0.61961   0.46145  -0.17442
C          C       0.04045   0.66567   0.42153   0.08174
C          C       0.14211   0.08283   0.69835   0.56325
C          C       0.06263   0.01787   0.72141   0.03218
C          C       0.95991   0.04165   0.72231  -0.09361
C          C       0.91727   0.13124   0.69623   0.55698
C          C       0.39568   0.02076   0.75081   0.07207
C          C       0.52493   0.12765   0.72892   0.09438
C          C       0.09425   0.93043   0.74554  -0.15098
C          C       0.34709   0.03490   0.58533   0.08437
C          C       0.39250   0.98436   0.54601  -0.16973
C          C       0.47513   0.02615   0.52110   0.09906
C          C       0.50799   0.11961   0.53855  -0.17458
C          C       0.45956   0.16567   0.57847   0.08190
C          C       0.85790   0.41717   0.19835   0.56315
C          C       0.93738   0.48213   0.22141   0.03260
C          C       0.04010   0.45835   0.22232  -0.09394
C          C       0.08274   0.36876   0.19622   0.55706
C          C       0.60432   0.47924   0.25082   0.07217
C          C       0.47507   0.37235   0.22892   0.09452
C          C       0.90576   0.56957   0.24554  -0.15106
C          C       0.65291   0.46510   0.08533   0.08449
C          C       0.60751   0.51563   0.04601  -0.16975
C          C       0.52488   0.47385   0.02110   0.09932
C          C       0.49201   0.38039   0.03855  -0.17298
C          C       0.54044   0.33433   0.07847   0.08168
C          C       0.35790   0.08283   0.19835   0.56316
C          C       0.43738   0.01787   0.22141   0.03258
C          C       0.54010   0.04165   0.22232  -0.09398
C          C       0.58274   0.13124   0.19622   0.55707
C          C       0.10432   0.02076   0.25082   0.07207
C          C       0.97507   0.12765   0.22892   0.09456
C          C       0.40576   0.93043   0.24554  -0.15116
C          C       0.15291   0.03490   0.08533   0.08445
C          C       0.10751   0.98437   0.04601  -0.16973
C          C       0.02488   0.02615   0.02110   0.09931
C          C       0.99201   0.11961   0.03855  -0.17302
C          C       0.04044   0.16567   0.07847   0.08174
C          C       0.64211   0.41717   0.69835   0.56321
C          C       0.56264   0.48213   0.72141   0.03217
C          C       0.45991   0.45835   0.72231  -0.09370
C          C       0.41727   0.36876   0.69623   0.55697
C          C       0.89568   0.47924   0.75081   0.07210
C          C       0.02493   0.37235   0.72892   0.09447
C          C       0.59425   0.56957   0.74554  -0.15088
C          C       0.84709   0.46510   0.58533   0.08438
C          C       0.89250   0.51563   0.54601  -0.16975
C          C       0.97513   0.47385   0.52110   0.09909
C          C       0.00799   0.38039   0.53855  -0.17454
C          C       0.95956   0.33433   0.57847   0.08192
C          C       0.85790   0.91717   0.30166   0.56319
C          C       0.93738   0.98213   0.27860   0.03248
C          C       0.04010   0.95835   0.27769  -0.09375
C          C       0.08274   0.86876   0.30378   0.55678
C          C       0.60432   0.97924   0.24919   0.07205
C          C       0.47508   0.87234   0.27109   0.09449
C          C       0.90576   0.06957   0.25447  -0.15104
C          C       0.65292   0.96510   0.41467   0.08452
C          C       0.60751   0.01563   0.45399  -0.16970
C          C       0.52488   0.97385   0.47890   0.09908
C          C       0.49201   0.88039   0.46145  -0.17445
C          C       0.54045   0.83433   0.42153   0.08172
C          C       0.14211   0.58283   0.80165   0.56288
C          C       0.06263   0.51787   0.77859   0.03257
C          C       0.95991   0.54165   0.77769  -0.09382
C          C       0.91727   0.63124   0.80378   0.55694
C          C       0.39569   0.52075   0.74918   0.07201
C          C       0.52494   0.62765   0.77108   0.09445
C          C       0.09424   0.43043   0.75446  -0.15097
C          C       0.34710   0.53490   0.91467   0.08437
C          C       0.39250   0.48437   0.95399  -0.16981
C          C       0.47513   0.52615   0.97890   0.09949
C          C       0.50800   0.61961   0.96145  -0.17465
C          C       0.45957   0.66567   0.92153   0.08204
N          N       0.92665   0.89711   0.77350  -0.25018
N          N       0.87967   0.87547   0.89842  -0.23268
N          N       0.07337   0.60289   0.27351  -0.24984
N          N       0.12034   0.62454   0.39843  -0.23228
N          N       0.42664   0.10289   0.72649  -0.25018
N          N       0.37967   0.12454   0.60157  -0.23223
N          N       0.57336   0.39711   0.22650  -0.25005
N          N       0.62034   0.37547   0.10158  -0.23216
N          N       0.07336   0.10289   0.22650  -0.25000
N          N       0.12034   0.12453   0.10158  -0.23220
N          N       0.92664   0.39711   0.72649  -0.25017
N          N       0.87967   0.37546   0.60157  -0.23224
N          N       0.57337   0.89711   0.27351  -0.24988
N          N       0.62034   0.87546   0.39843  -0.23224
N          N       0.42665   0.60289   0.77350  -0.25018
N          N       0.37967   0.62453   0.89842  -0.23270
O          O       0.68705   0.94924   0.84010  -0.56088
O          O       0.66682   0.83850   0.77779  -0.53344
O          O       0.46936   0.82312   0.83571  -0.55182
O          O       0.32768   0.84330   0.79066  -0.55323
O          O       0.31297   0.55076   0.34012  -0.56122
O          O       0.33318   0.66149   0.27779  -0.53351
O          O       0.53066   0.67688   0.33571  -0.55228
O          O       0.67232   0.65671   0.29065  -0.55269
O          O       0.18704   0.05077   0.65989  -0.56154
O          O       0.16682   0.16149   0.72221  -0.53306
O          O       0.96935   0.17688   0.66430  -0.55237
O          O       0.82769   0.15670   0.70934  -0.55302
O          O       0.81296   0.44924   0.15990  -0.56145
O          O       0.83319   0.33850   0.22222  -0.53324
O          O       0.03064   0.32312   0.16430  -0.55246
O          O       0.17233   0.34330   0.20933  -0.55271
O          O       0.31296   0.05076   0.15990  -0.56142
O          O       0.33318   0.16150   0.22222  -0.53331
O          O       0.53064   0.17687   0.16430  -0.55248
O          O       0.67233   0.15670   0.20933  -0.55270
O          O       0.68704   0.44923   0.65989  -0.56152
O          O       0.66683   0.33851   0.72221  -0.53301
O          O       0.46935   0.32312   0.66430  -0.55236
O          O       0.32769   0.34329   0.70934  -0.55295
O          O       0.81297   0.94923   0.34012  -0.56124
O          O       0.83318   0.83851   0.27779  -0.53342
O          O       0.03066   0.82312   0.33571  -0.55220
O          O       0.17232   0.84329   0.29065  -0.55270
O          O       0.18705   0.55076   0.84010  -0.56081
O          O       0.16682   0.66150   0.77779  -0.53352
O          O       0.96936   0.67687   0.83571  -0.55184
O          O       0.82768   0.65670   0.79066  -0.55329

