data_crystal

_audit_creation_method 'AiiDA-DDEC plugin'

_cell_length_a        14.45638
_cell_length_b        14.38988
_cell_length_c        17.99530

_cell_angle_alpha     105.56371
_cell_angle_beta     106.09883
_cell_angle_gamma     109.77108

_symmetry_space_group_name_Hall 'P 1'
_symmetry_space_group_name_H-M  'P 1'

loop_
_symmetry_equiv_pos_as_xyz
 'x,y,z'

loop_
_atom_site_label
_atom_site_type_symbol
_atom_site_fract_x
_atom_site_fract_y
_atom_site_fract_z
_atom_site_charge
Cu         Cu      0.96855   0.74581   0.75464   0.22067
Cu         Cu      0.49340   0.20846   0.74482   0.21813
Cu         Cu      0.70806   0.99289   0.24442   0.21960
Cu         Cu      0.24531   0.46809   0.25658   0.21962
Cu         Cu      0.29194   0.00703   0.75556   0.21929
Cu         Cu      0.75471   0.53191   0.74345   0.21941
Cu         Cu      0.03147   0.25421   0.24538   0.22083
Cu         Cu      0.50657   0.79158   0.25519   0.21787
H          H       0.78499   0.73822   0.62388   0.07848
H          H       0.67789   0.83693   0.61571   0.10633
H          H       0.85861   0.02169   0.88628   0.10532
H          H       0.96063   0.91700   0.88212   0.07386
H          H       0.88014   0.67049   0.56249   0.07496
H          H       0.16556   0.73928   0.75133   0.07844
H          H       0.93940   0.61037   0.45172   0.10684
H          H       0.23473   0.67615   0.64885   0.10838
H          H       0.03085   0.62614   0.37524   0.10832
H          H       0.25589   0.57170   0.55352   0.11198
H          H       0.31728   0.51429   0.44348   0.07329
H          H       0.09997   0.56417   0.27185   0.07497
H          H       0.61890   0.15748   0.87514   0.07930
H          H       0.72507   0.05793   0.88325   0.10647
H          H       0.63991   0.96882   0.61416   0.10462
H          H       0.53866   0.07436   0.61792   0.07495
H          H       0.61399   0.31701   0.93820   0.07528
H          H       0.49508   0.41307   0.74951   0.08082
H          H       0.66079   0.48744   0.04934   0.10734
H          H       0.53138   0.58496   0.85216   0.10911
H          H       0.75130   0.65909   0.12812   0.11095
H          H       0.51577   0.69860   0.94552   0.11206
H          H       0.56358   0.87017   0.05608   0.07762
H          H       0.79075   0.83358   0.23055   0.07238
H          H       0.65774   0.11680   0.37406   0.07867
H          H       0.55913   0.22373   0.38282   0.10735
H          H       0.46690   0.14111   0.11377   0.10464
H          H       0.57182   0.03916   0.11675   0.07465
H          H       0.81709   0.11208   0.43713   0.07584
H          H       0.91185   0.99517   0.24906   0.08066
H          H       0.98760   0.15907   0.54843   0.10715
H          H       0.08418   0.03211   0.35184   0.11021
H          H       0.15902   0.25054   0.62751   0.11176
H          H       0.19956   0.01691   0.44641   0.11385
H          H       0.37145   0.06581   0.55726   0.07749
H          H       0.33396   0.29161   0.73025   0.07398
H          H       0.23686   0.28639   0.12607   0.07694
H          H       0.33604   0.18001   0.11643   0.10709
H          H       0.52365   0.35783   0.38689   0.10508
H          H       0.41828   0.45927   0.38428   0.07361
H          H       0.17120   0.38038   0.06534   0.07453
H          H       0.23858   0.66613   0.25215   0.07961
H          H       0.11181   0.43958   0.95342   0.10761
H          H       0.17564   0.73513   0.14835   0.10866
H          H       0.12663   0.53074   0.87622   0.10909
H          H       0.07096   0.75571   0.05162   0.11229
H          H       0.01400   0.81704   0.94053   0.07401
H          H       0.06537   0.60014   0.77173   0.07548
H          H       0.34226   0.88319   0.62594   0.07858
H          H       0.44089   0.77627   0.61718   0.10737
H          H       0.53308   0.85885   0.88623   0.10443
H          H       0.42824   0.96087   0.88325   0.07454
H          H       0.18290   0.88791   0.56284   0.07596
H          H       0.08816   0.00482   0.75093   0.08052
H          H       0.01240   0.84089   0.45156   0.10736
H          H       0.91586   0.96788   0.64817   0.11007
H          H       0.84099   0.74943   0.37248   0.11195
H          H       0.80042   0.98308   0.55360   0.11382
H          H       0.62854   0.93419   0.44275   0.07738
H          H       0.66607   0.70840   0.26974   0.07444
H          H       0.76316   0.71362   0.87395   0.07708
H          H       0.66398   0.82000   0.88359   0.10702
H          H       0.47637   0.64217   0.61311   0.10520
H          H       0.58177   0.54076   0.61573   0.07364
H          H       0.82884   0.61963   0.93469   0.07459
H          H       0.76146   0.33392   0.74789   0.07950
H          H       0.88824   0.56045   0.04661   0.10746
H          H       0.82436   0.26490   0.85166   0.10886
H          H       0.87339   0.46923   0.12379   0.10877
H          H       0.92902   0.24427   0.94840   0.11248
H          H       0.98601   0.18292   0.05948   0.07428
H          H       0.93464   0.39983   0.22829   0.07543
H          H       0.21500   0.26176   0.37613   0.07839
H          H       0.32210   0.16305   0.38428   0.10621
H          H       0.14137   0.97828   0.11371   0.10540
H          H       0.03935   0.08298   0.11787   0.07391
H          H       0.11986   0.32949   0.43752   0.07517
H          H       0.83441   0.26071   0.24865   0.07877
H          H       0.06059   0.38959   0.54827   0.10687
H          H       0.76527   0.32387   0.35115   0.10843
H          H       0.96915   0.37385   0.62476   0.10852
H          H       0.74409   0.42829   0.44648   0.11206
H          H       0.68272   0.48569   0.55651   0.07324
H          H       0.90004   0.43585   0.72814   0.07479
H          H       0.38110   0.84250   0.12485   0.07935
H          H       0.27494   0.94206   0.11675   0.10652
H          H       0.36007   0.03115   0.38583   0.10448
H          H       0.46133   0.92562   0.38208   0.07487
H          H       0.38598   0.68296   0.06179   0.07498
H          H       0.50492   0.58694   0.25049   0.08055
H          H       0.33922   0.51255   0.95062   0.10773
H          H       0.46861   0.41500   0.14781   0.10887
H          H       0.24870   0.34088   0.87189   0.11096
H          H       0.48423   0.30141   0.05447   0.11195
H          H       0.43640   0.12983   0.94391   0.07774
H          H       0.20924   0.16638   0.76946   0.07243
C          C       0.80061   0.80305   0.68054   0.06311
C          C       0.74085   0.85997   0.67651  -0.19361
C          C       0.75756   0.94255   0.75049   0.05674
C          C       0.83885   0.95997   0.82610  -0.19895
C          C       0.89687   0.90118   0.82425   0.04201
C          C       0.95807   0.67001   0.57939   0.07704
C          C       0.11612   0.70651   0.68406   0.05320
C          C       0.99272   0.63705   0.51712  -0.19471
C          C       0.15470   0.67127   0.62592  -0.18931
C          C       0.09422   0.63594   0.53834   0.06836
C          C       0.13524   0.60444   0.47611   0.06976
C          C       0.09333   0.60062   0.39348  -0.19567
C          C       0.22014   0.57396   0.49271  -0.19156
C          C       0.25464   0.54093   0.43074   0.03874
C          C       0.13303   0.56773   0.33523   0.05339
C          C       0.62662   0.11617   0.81867   0.06612
C          C       0.68752   0.06037   0.82286  -0.19375
C          C       0.69598   0.00306   0.74922   0.06241
C          C       0.63817   0.00901   0.67396  -0.20237
C          C       0.58094   0.06873   0.67560   0.04378
C          C       0.59656   0.37808   0.92117   0.07291
C          C       0.52844   0.43068   0.81658   0.06113
C          C       0.62414   0.47540   0.98376  -0.19053
C          C       0.54927   0.52764   0.87488  -0.19558
C          C       0.60027   0.55524   0.96272   0.07147
C          C       0.62785   0.65860   0.02505   0.06958
C          C       0.70598   0.70164   0.10901  -0.18705
C          C       0.57777   0.72470   0.00769  -0.18900
C          C       0.60395   0.82145   0.06975   0.04408
C          C       0.72939   0.80026   0.16690   0.05317
C          C       0.61619   0.12535   0.31775   0.06870
C          C       0.56091   0.18674   0.32234  -0.19387
C          C       0.50321   0.19628   0.24901   0.06376
C          C       0.50787   0.13884   0.17346  -0.20167
C          C       0.56711   0.08103   0.17469   0.04644
C          C       0.87784   0.09479   0.42047   0.07015
C          C       0.92998   0.02814   0.31617   0.06340
C          C       0.97534   0.12244   0.48306  -0.18632
C          C       0.02729   0.04938   0.37458  -0.19784
C          C       0.05516   0.09971   0.46239   0.07207
C          C       0.15888   0.12806   0.52496   0.07111
C          C       0.20183   0.20583   0.60859  -0.18555
C          C       0.22537   0.07888   0.50805  -0.19020
C          C       0.32265   0.10598   0.57051   0.04722
C          C       0.30084   0.23037   0.66682   0.05053
C          C       0.30254   0.30173   0.18236   0.06560
C          C       0.35960   0.24225   0.17748  -0.19386
C          C       0.44296   0.25817   0.25099   0.05793
C          C       0.46122   0.33855   0.32700  -0.19949
C          C       0.40214   0.39640   0.32605   0.04521
C          C       0.17085   0.45850   0.08141   0.07626
C          C       0.20620   0.61651   0.18499   0.05554
C          C       0.13815   0.49322   0.01861  -0.19300
C          C       0.17102   0.65511   0.12615  -0.18959
C          C       0.13604   0.59435   0.03878   0.06885
C          C       0.10451   0.63536   0.97582   0.06975
C          C       0.10097   0.59327   0.89361  -0.19519
C          C       0.07380   0.72016   0.99132  -0.18876
C          C       0.04078   0.75450   0.92861   0.03746
C          C       0.06836   0.63303   0.83472   0.05490
C          C       0.38383   0.87463   0.68226   0.06901
C          C       0.43904   0.81321   0.67766  -0.19389
C          C       0.49684   0.80373   0.75100   0.06390
C          C       0.49213   0.86116   0.82655  -0.20174
C          C       0.43285   0.91895   0.82531   0.04620
C          C       0.12223   0.90528   0.57955   0.07059
C          C       0.07007   0.97186   0.68383   0.06329
C          C       0.02466   0.87758   0.51694  -0.18602
C          C       0.97274   0.95061   0.62542  -0.19736
C          C       0.94492   0.90030   0.53763   0.07236
C          C       0.84110   0.87194   0.47500   0.07161
C          C       0.79819   0.79417   0.39145  -0.18526
C          C       0.77460   0.92106   0.49198  -0.19059
C          C       0.67731   0.89396   0.42950   0.04753
C          C       0.69914   0.76960   0.33316   0.05024
C          C       0.69749   0.69829   0.81765   0.06514
C          C       0.64041   0.75775   0.82254  -0.19426
C          C       0.55706   0.74182   0.74902   0.05807
C          C       0.53881   0.66143   0.67299  -0.19961
C          C       0.59788   0.60360   0.67396   0.04555
C          C       0.82928   0.54158   0.91861   0.07589
C          C       0.79385   0.38351   0.81504   0.05634
C          C       0.86198   0.50686   0.98142  -0.19344
C          C       0.82898   0.34489   0.87385  -0.18980
C          C       0.86391   0.40564   0.96125   0.06885
C          C       0.89551   0.36469   0.02420   0.06980
C          C       0.89902   0.40669   0.10640  -0.19519
C          C       0.92619   0.27984   0.00868  -0.18938
C          C       0.95917   0.24543   0.07135   0.03782
C          C       0.93161   0.36691   0.16530   0.05444
C          C       0.19939   0.19692   0.31946   0.06291
C          C       0.25913   0.13999   0.32348  -0.19342
C          C       0.24243   0.05742   0.24949   0.05675
C          C       0.16115   0.04001   0.17390  -0.19869
C          C       0.10309   0.09877   0.17575   0.04225
C          C       0.04191   0.32992   0.42063   0.07694
C          C       0.88388   0.29349   0.31593   0.05329
C          C       0.00722   0.36285   0.48288  -0.19417
C          C       0.84531   0.32879   0.37410  -0.18889
C          C       0.90580   0.36410   0.46167   0.06643
C          C       0.86476   0.39559   0.52391   0.07058
C          C       0.90668   0.39939   0.60652  -0.19575
C          C       0.77981   0.42600   0.50727  -0.19158
C          C       0.74534   0.45906   0.56928   0.03900
C          C       0.86697   0.43226   0.66477   0.05351
C          C       0.37339   0.88383   0.18132   0.06641
C          C       0.31248   0.93963   0.17713  -0.19371
C          C       0.30400   0.99691   0.25076   0.06219
C          C       0.36183   0.99097   0.32603  -0.20223
C          C       0.41904   0.93126   0.32440   0.04358
C          C       0.40347   0.62192   0.07881   0.07360
C          C       0.47164   0.56925   0.18339   0.06119
C          C       0.37582   0.52460   0.01620  -0.19138
C          C       0.45078   0.47235   0.12508  -0.19532
C          C       0.39963   0.44466   0.03720   0.07144
C          C       0.37222   0.34147   0.97491   0.06924
C          C       0.29394   0.29827   0.89095  -0.18727
C          C       0.42221   0.27530   0.99230  -0.18914
C          C       0.39602   0.17853   0.93028   0.04384
C          C       0.27058   0.19969   0.83312   0.05324
N          N       0.88085   0.82229   0.75293  -0.24299
N          N       0.01677   0.70403   0.66315  -0.22262
N          N       0.21310   0.53620   0.35094  -0.24455
N          N       0.57298   0.12341   0.74649  -0.24203
N          N       0.54808   0.35241   0.83714  -0.22455
N          N       0.67947   0.86246   0.15045  -0.23925
N          N       0.62257   0.07233   0.24538  -0.24424
N          N       0.85193   0.04683   0.33641  -0.22497
N          N       0.36346   0.18122   0.65073  -0.23282
N          N       0.32242   0.38107   0.25519  -0.24302
N          N       0.20382   0.51705   0.16497  -0.22177
N          N       0.03679   0.71317   0.84933  -0.24236
N          N       0.37751   0.92774   0.75462  -0.24399
N          N       0.14807   0.95317   0.66358  -0.22434
N          N       0.63658   0.81885   0.34927  -0.23185
N          N       0.67760   0.61893   0.74484  -0.24292
N          N       0.79613   0.48292   0.83504  -0.22213
N          N       0.96332   0.28684   0.15068  -0.24255
N          N       0.11915   0.17770   0.24707  -0.24331
N          N       0.98320   0.29594   0.33684  -0.22226
N          N       0.78690   0.46379   0.64906  -0.24446
N          N       0.42697   0.87655   0.25350  -0.24193
N          N       0.45177   0.64749   0.16287  -0.22592
N          N       0.32066   0.13763   0.84953  -0.23922

