data_crystal

_audit_creation_method 'AiiDA-DDEC plugin'

_cell_length_a        11.42490
_cell_length_b        17.67513
_cell_length_c        17.67461

_cell_angle_alpha     115.63417
_cell_angle_beta     102.49581
_cell_angle_gamma     102.49266

_symmetry_space_group_name_Hall 'P 1'
_symmetry_space_group_name_H-M  'P 1'

loop_
_symmetry_equiv_pos_as_xyz
 'x,y,z'

loop_
_atom_site_label
_atom_site_type_symbol
_atom_site_fract_x
_atom_site_fract_y
_atom_site_fract_z
_atom_site_charge
Ag         Ag      0.65523   0.43314   0.80292   0.28392
Ag         Ag      0.85167   0.19693   0.62949   0.28343
Ag         Ag      0.22204   0.37016   0.56723   0.28346
Ag         Ag      0.34477   0.56687   0.19708   0.28391
Ag         Ag      0.14833   0.80308   0.37051   0.28340
Ag         Ag      0.77796   0.62984   0.43277   0.28355
H          H       0.40866   0.66226   0.79850   0.06885
H          H       0.49400   0.67118   0.72690   0.08498
H          H       0.30215   0.66181   0.61907   0.05204
H          H       0.23051   0.66927   0.70106   0.05697
H          H       0.01318   0.63936   0.63003   0.08947
H          H       0.19577   0.46135   0.49051   0.08760
H          H       0.59458   0.74678   0.89088   0.10165
H          H       0.83353   0.79501   0.00814   0.13249
H          H       0.89860   0.64519   0.93994   0.08961
H          H       0.25702   0.54063   0.77678   0.11092
H          H       0.17397   0.39357   0.79435   0.13412
H          H       0.36687   0.32405   0.78532   0.10491
H          H       0.70423   0.59102   0.68629   0.12145
H          H       0.66045   0.45540   0.51722   0.13627
H          H       0.42652   0.33310   0.47293   0.10993
H          H       0.61081   0.20259   0.86401   0.06881
H          H       0.76799   0.27497   0.94478   0.08478
H          H       0.68275   0.38166   0.04287   0.05212
H          H       0.52894   0.29935   0.96748   0.05826
H          H       0.38260   0.36988   0.00859   0.08910
H          H       0.70542   0.50957   0.97111   0.08610
H          H       0.70360   0.11066   0.85574   0.10335
H          H       0.82588   0.99393   0.78734   0.13272
H          H       0.95923   0.06162   0.70564   0.09067
H          H       0.48025   0.22414   0.76379   0.11052
H          H       0.37924   0.20619   0.59898   0.13575
H          H       0.58072   0.21430   0.53800   0.10486
H          H       0.01888   0.31523   0.90496   0.12149
H          H       0.14427   0.48391   0.93837   0.13590
H          H       0.95402   0.52745   0.86012   0.10978
H          H       0.74536   0.13524   0.33810   0.06821
H          H       0.82208   0.05481   0.32890   0.08408
H          H       0.63847   0.95616   0.33782   0.05248
H          H       0.56046   0.03153   0.33117   0.05791
H          H       0.37369   0.99120   0.36117   0.08858
H          H       0.73447   0.02839   0.53816   0.08604
H          H       0.84623   0.14285   0.25376   0.10193
H          H       0.03632   0.21192   0.20541   0.13293
H          H       0.25217   0.29429   0.35503   0.09034
H          H       0.71576   0.23560   0.45922   0.11047
H          H       0.78020   0.40110   0.60620   0.13467
H          H       0.04274   0.46228   0.67592   0.10472
H          H       0.11292   0.09486   0.40936   0.12237
H          H       0.20515   0.06201   0.54487   0.13684
H          H       0.09377   0.14063   0.66710   0.11016
H          H       0.59134   0.33775   0.20150   0.06894
H          H       0.50601   0.32882   0.27310   0.08463
H          H       0.69785   0.33819   0.38093   0.05178
H          H       0.76950   0.33073   0.29893   0.05698
H          H       0.98683   0.36064   0.36997   0.08948
H          H       0.80423   0.53865   0.50949   0.08748
H          H       0.40543   0.25323   0.10912   0.10148
H          H       0.16647   0.20499   0.99186   0.13241
H          H       0.10140   0.35481   0.06005   0.08970
H          H       0.74299   0.45937   0.22321   0.11081
H          H       0.82603   0.60643   0.20565   0.13432
H          H       0.63314   0.67596   0.21467   0.10507
H          H       0.29578   0.40899   0.31371   0.12139
H          H       0.33955   0.54460   0.48278   0.13613
H          H       0.57349   0.66691   0.52707   0.11001
H          H       0.38919   0.79742   0.13599   0.06899
H          H       0.23202   0.72503   0.05522   0.08490
H          H       0.31725   0.61835   0.95713   0.05217
H          H       0.47106   0.70066   0.03252   0.05850
H          H       0.61741   0.63012   0.99141   0.08919
H          H       0.29458   0.49043   0.02889   0.08601
H          H       0.29641   0.88934   0.14426   0.10358
H          H       0.17413   0.00607   0.21266   0.13297
H          H       0.04078   0.93838   0.29435   0.09062
H          H       0.51976   0.77586   0.23620   0.11063
H          H       0.62076   0.79382   0.40102   0.13573
H          H       0.41928   0.78570   0.46199   0.10465
H          H       0.98112   0.68477   0.09503   0.12177
H          H       0.85573   0.51610   0.06163   0.13583
H          H       0.04598   0.47256   0.13987   0.10954
H          H       0.25465   0.86476   0.66190   0.06798
H          H       0.17792   0.94520   0.67110   0.08411
H          H       0.36154   0.04384   0.66217   0.05248
H          H       0.43955   0.96847   0.66883   0.05775
H          H       0.62631   0.00881   0.63883   0.08842
H          H       0.26553   0.97161   0.46184   0.08605
H          H       0.15378   0.85716   0.74623   0.10209
H          H       0.96368   0.78809   0.79459   0.13273
H          H       0.74784   0.70571   0.64497   0.09017
H          H       0.28425   0.76440   0.54077   0.11049
H          H       0.21980   0.59891   0.39379   0.13468
H          H       0.95726   0.53773   0.32407   0.10468
H          H       0.88708   0.90515   0.59064   0.12220
H          H       0.79485   0.93800   0.45512   0.13687
H          H       0.90623   0.85937   0.33290   0.11041
C          C       0.49848   0.56173   0.74962   0.27745
C          C       0.42843   0.62375   0.73719  -0.08614
C          C       0.24475   0.62185   0.64114  -0.00573
C          C       0.11828   0.55791   0.56892   0.06152
C          C       0.00759   0.57819   0.57315  -0.13179
C          C       0.11068   0.47840   0.49528  -0.16378
C          C       0.65647   0.70825   0.88912  -0.13225
C          C       0.77759   0.73099   0.94776  -0.21678
C          C       0.81210   0.65480   0.91267  -0.04093
C          C       0.30274   0.49368   0.77827  -0.09817
C          C       0.26291   0.41864   0.78627  -0.19371
C          C       0.35998   0.38190   0.78034  -0.01033
C          C       0.62238   0.53032   0.64097  -0.07209
C          C       0.59864   0.46036   0.55629  -0.20364
C          C       0.47951   0.39761   0.53312  -0.02768
C          C       0.74908   0.25128   0.81207   0.26713
C          C       0.69180   0.26401   0.88674  -0.08869
C          C       0.60342   0.35940   0.98049  -0.00934
C          C       0.54918   0.43130   0.98884   0.05900
C          C       0.43412   0.42683   0.00469  -0.13077
C          C       0.61554   0.50490   0.98332  -0.15951
C          C       0.76769   0.11245   0.81928  -0.14038
C          C       0.83034   0.05403   0.78357  -0.21714
C          C       0.89995   0.08890   0.74244  -0.04231
C          C       0.52437   0.22237   0.71523  -0.09890
C          C       0.47628   0.21409   0.63203  -0.20124
C          C       0.57912   0.21960   0.60101  -0.00526
C          C       0.98210   0.36023   0.88957  -0.07300
C          C       0.04318   0.44478   0.90431  -0.20477
C          C       0.94701   0.46760   0.86469  -0.02484
C          C       0.93636   0.18751   0.43857   0.27633
C          C       0.80407   0.11262   0.37646  -0.08386
C          C       0.62205   0.01867   0.37819  -0.00970
C          C       0.56005   0.01077   0.44219   0.06004
C          C       0.42916   0.99524   0.42213  -0.12901
C          C       0.63237   0.01649   0.52139  -0.16276
C          C       0.94689   0.17983   0.29217  -0.13405
C          C       0.04497   0.21576   0.26939  -0.21656
C          C       0.15615   0.25725   0.34554  -0.04130
C          C       0.80864   0.28436   0.50629  -0.09412
C          C       0.84405   0.36783   0.58126  -0.19773
C          C       0.97804   0.39898   0.61813  -0.00711
C          C       0.09194   0.11050   0.47000  -0.07403
C          C       0.13835   0.09608   0.53991  -0.20527
C          C       0.08222   0.13597   0.60262  -0.02732
C          C       0.50152   0.43827   0.25037   0.27762
C          C       0.57157   0.37625   0.26281  -0.08609
C          C       0.75525   0.37815   0.35886  -0.00578
C          C       0.88172   0.44210   0.43107   0.06165
C          C       0.99241   0.42182   0.42684  -0.13184
C          C       0.88933   0.52161   0.50472  -0.16377
C          C       0.34353   0.29176   0.11087  -0.13217
C          C       0.22241   0.26901   0.05223  -0.21680
C          C       0.18791   0.34520   0.08732  -0.04109
C          C       0.69726   0.50632   0.22173  -0.09811
C          C       0.73710   0.58137   0.21373  -0.19361
C          C       0.64003   0.61811   0.21966  -0.01005
C          C       0.37762   0.46969   0.35903  -0.07225
C          C       0.40136   0.53964   0.44371  -0.20386
C          C       0.52049   0.60239   0.46687  -0.02758
C          C       0.25092   0.74872   0.18792   0.26716
C          C       0.30821   0.73599   0.11326  -0.08844
C          C       0.39658   0.64061   0.01950  -0.00916
C          C       0.45083   0.56870   0.01116   0.05907
C          C       0.56588   0.57317   0.99531  -0.13046
C          C       0.38447   0.49511   0.01668  -0.15965
C          C       0.23231   0.88755   0.18072  -0.14038
C          C       0.16966   0.94597   0.21643  -0.21688
C          C       0.10006   0.91110   0.25755  -0.04236
C          C       0.47563   0.77763   0.28477  -0.09879
C          C       0.52372   0.78592   0.36797  -0.20119
C          C       0.42089   0.78040   0.39899  -0.00545
C          C       0.01790   0.63977   0.11043  -0.07283
C          C       0.95682   0.55523   0.09569  -0.20517
C          C       0.05299   0.53240   0.13531  -0.02501
C          C       0.06364   0.81249   0.56142   0.27653
C          C       0.19594   0.88738   0.62354  -0.08393
C          C       0.37796   0.98134   0.62180  -0.00976
C          C       0.43996   0.98923   0.55780   0.06017
C          C       0.57084   0.00477   0.57786  -0.12916
C          C       0.36764   0.98352   0.47860  -0.16283
C          C       0.05311   0.82017   0.70783  -0.13420
C          C       0.95504   0.78425   0.73060  -0.21650
C          C       0.84385   0.74275   0.65445  -0.04152
C          C       0.19136   0.71564   0.49371  -0.09419
C          C       0.15595   0.63217   0.41873  -0.19759
C          C       0.02196   0.60102   0.38187  -0.00732
C          C       0.90806   0.88950   0.53000  -0.07420
C          C       0.86165   0.90393   0.46008  -0.20511
C          C       0.91779   0.86403   0.39738  -0.02725
N          N       0.71913   0.58561   0.83541  -0.24453
N          N       0.62376   0.62027   0.81969   0.02172
N          N       0.45637   0.43011   0.76866  -0.19312
N          N       0.42120   0.50003   0.76842   0.03229
N          N       0.42946   0.42572   0.59860  -0.16834
N          N       0.51975   0.50740   0.66548   0.04152
N          N       0.88407   0.16581   0.75031  -0.24765
N          N       0.80425   0.18148   0.80055   0.04072
N          N       0.68737   0.23135   0.66093  -0.20018
N          N       0.65265   0.23197   0.73130   0.04847
N          N       0.83126   0.40204   0.82727  -0.17055
N          N       0.85467   0.33548   0.84211   0.04256
N          N       0.13300   0.24944   0.41472  -0.24327
N          N       0.00282   0.19873   0.38005   0.02071
N          N       0.02623   0.33893   0.57010  -0.19315
N          N       0.92086   0.26825   0.50017   0.02972
N          N       0.00402   0.17322   0.57450  -0.16975
N          N       0.01240   0.15812   0.49293   0.04500
N          N       0.28088   0.41439   0.16459  -0.24424
N          N       0.37624   0.37973   0.18030   0.02147
N          N       0.54363   0.56990   0.23134  -0.19321
N          N       0.57880   0.49997   0.23158   0.03207
N          N       0.57054   0.57428   0.40140  -0.16815
N          N       0.48025   0.49261   0.33451   0.04155
N          N       0.11593   0.83420   0.24968  -0.24818
N          N       0.19576   0.81853   0.19945   0.04077
N          N       0.31264   0.76865   0.33907  -0.20029
N          N       0.34735   0.76804   0.26870   0.04863
N          N       0.16874   0.59797   0.17273  -0.17073
N          N       0.14533   0.66453   0.15788   0.04297
N          N       0.86700   0.75057   0.58528  -0.24308
N          N      -0.00281   0.80128   0.61994   0.02062
N          N       0.97377   0.66107   0.42990  -0.19308
N          N       0.07914   0.73176   0.49983   0.02973
N          N       0.99599   0.82678   0.42550  -0.16979
N          N       0.98760   0.84189   0.50707   0.04501
O          O       0.31422   0.57052   0.66263  -0.21016
O          O       0.65196   0.33826   0.90792  -0.20891
O          O       0.74363   0.09129   0.42960  -0.21041
O          O       0.68579   0.42949   0.33737  -0.21002
O          O       0.34804   0.66174   0.09208  -0.20963
O          O       0.25638   0.90871   0.57040  -0.21006

