data_crystal

_audit_creation_method 'AiiDA-DDEC plugin'

_cell_length_a        20.32882
_cell_length_b        20.32850
_cell_length_c        20.33569

_cell_angle_alpha     109.46060
_cell_angle_beta     109.53966
_cell_angle_gamma     109.58580

_symmetry_space_group_name_Hall 'P 1'
_symmetry_space_group_name_H-M  'P 1'

loop_
_symmetry_equiv_pos_as_xyz
 'x,y,z'

loop_
_atom_site_label
_atom_site_type_symbol
_atom_site_fract_x
_atom_site_fract_y
_atom_site_fract_z
_atom_site_charge
Co         Co     -0.00036  -0.00014   0.49995   0.92267
Co         Co     -0.00031   0.49970  -0.00040   0.92243
Co         Co      0.49964  -0.00046  -0.00045   0.92164
Co         Co      0.49991   0.50005   0.50012   0.92202
H          H       0.32373   0.17670   0.06003   0.11142
H          H       0.96201   0.89153   0.63097   0.11731
H          H       0.38888   0.28364   0.58638   0.12025
H          H       0.85312   0.67591   0.73700   0.11252
H          H       0.10510   0.30282   0.71688   0.11926
H          H       0.80198   0.41380   0.69693   0.11970
H          H       0.63130   0.73990   0.66902   0.11622
H          H       0.17694   0.85254   0.11619   0.11173
H          H       0.60931   0.41989   0.51262   0.13566
H          H       0.80239   0.10503   0.38832   0.12062
H          H       0.58627   0.38882   0.28365   0.11985
H          H       0.93952   0.67603   0.82364   0.11221
H          H       0.58618   0.30307   0.19777   0.11948
H          H       0.63079   0.96195   0.89131   0.11607
H          H       0.41997   0.81022   0.90663   0.13207
H          H       0.93922   0.11585   0.26350   0.11223
H          H       0.26373   0.93933   0.11640   0.11181
H          H       0.71644   0.41370   0.61135   0.12194
H          H       0.88339   0.73653   0.06074   0.11139
H          H       0.06025   0.32385   0.17625   0.11150
H          H       0.10987   0.07130   0.74030   0.11671
H          H       0.61077   0.71654   0.41352   0.11935
H          H       0.85287   0.11625   0.17710   0.11268
H          H       0.06077   0.88399   0.73646   0.11131
H          H       0.19778   0.58622   0.30325   0.11941
H          H       0.81054   0.39066   0.90352   0.13051
H          H       0.18973   0.09319   0.58017   0.13208
H          H       0.48691   0.90709   0.09622   0.13261
H          H       0.32389   0.26324   0.14652   0.11124
H          H       0.51264   0.09272   0.90303   0.13100
H          H       0.09294   0.58017   0.19014   0.13180
H          H       0.39013   0.90269   0.81012   0.13185
H          H       0.11653   0.26368   0.93952   0.11093
H          H       0.41369   0.61135   0.71633   0.11914
H          H       0.33058   0.36900   0.25914   0.11384
H          H       0.09673   0.18968   0.60990   0.13161
H          H       0.71690   0.10527   0.30281   0.12101
H          H       0.90731   0.09682   0.48718   0.13207
H          H       0.33040   0.07079   0.96099   0.11385
H          H       0.69688   0.28307   0.89435   0.11888
H          H       0.67613   0.82334   0.93982   0.11131
H          H       0.38850   0.80248   0.10531   0.12022
H          H       0.66946   0.92919   0.03893   0.11334
H          H       0.07073   0.73950   0.10893   0.11366
H          H       0.92987   0.03842   0.66902   0.11379
H          H       0.90700   0.41988   0.81009   0.13266
H          H       0.89507   0.69734   0.28332   0.12013
H          H       0.82299   0.14744   0.88364   0.11120
H          H       0.60968   0.09668   0.18938   0.13182
H          H       0.66940   0.63098   0.74083   0.11642
H          H       0.73988   0.10891   0.07086   0.11803
H          H       0.30307   0.71697   0.10569   0.12009
H          H       0.18934   0.60936   0.09657   0.13222
H          H       0.89505   0.61165   0.19760   0.12001
H          H       0.19749   0.89447   0.61145   0.12019
H          H       0.28354   0.58640   0.38890   0.11989
H          H       0.73673   0.85306   0.67577   0.11150
H          H       0.10501   0.38829   0.80239   0.11951
H          H       0.89005   0.63077   0.96146   0.11657
H          H       0.39038   0.58034   0.48787   0.13506
H          H       0.96157   0.33071   0.07011   0.11419
H          H       0.92942   0.26068   0.89142   0.11405
H          H       0.36943   0.03832   0.10920   0.11471
H          H       0.26011   0.33087   0.36872   0.11633
H          H       0.57993   0.48722   0.39064   0.13561
H          H       0.17656   0.06037   0.32414   0.11137
H          H       0.03856   0.66937   0.92977   0.11491
H          H       0.90354   0.51320   0.09274   0.13185
H          H       0.57983   0.18967   0.09305   0.13197
H          H       0.10991   0.36959   0.03862   0.11697
H          H       0.11638   0.17697   0.85284   0.11071
H          H       0.67606   0.73685   0.85340   0.11115
H          H       0.69661   0.80217   0.41365   0.11831
H          H       0.30347   0.19779   0.58632   0.11970
H          H       0.73626   0.06068   0.88367   0.11123
H          H       0.89029   0.92880   0.25964   0.11678
H          H       0.51239   0.60914   0.41969   0.13014
H          H       0.14756   0.88428   0.82322   0.11123
H          H       0.28313   0.89473   0.69711   0.11978
H          H       0.41384   0.69696   0.80194   0.11886
H          H       0.74021   0.66927   0.63134   0.11542
H          H       0.09267   0.90289   0.51273   0.13151
H          H       0.03819   0.10877   0.36926   0.11744
H          H       0.09657   0.48685   0.90705   0.13178
H          H       0.07034   0.96143   0.33088   0.11678
H          H       0.36897   0.25989   0.33092   0.11742
H          H       0.61110   0.19729   0.89407   0.11896
H          H       0.14720   0.32397   0.26291   0.11171
H          H       0.90350   0.81066   0.39036   0.13205
H          H       0.26332   0.14687   0.32425   0.11171
H          H       0.41994   0.51286   0.60931   0.13228
H          H       0.48721   0.39117   0.58012   0.13513
H          H       0.81014   0.90666   0.41967   0.13148
H          H       0.82357   0.93982   0.67583   0.11094
H          H       0.26046   0.89147   0.92938   0.11596
H          H       0.88372   0.82293   0.14720   0.11121
C          C       0.52669   0.19303   0.08996  -0.05568
C          C       0.85295   0.47247   0.74632  -0.17129
C          C       0.66630   0.10318   0.19297  -0.05344
C          C       0.31389   0.20284   0.45529   0.04283
C          C       0.10308   0.43681   0.91010  -0.05653
C          C       0.61615   0.63148   0.74084  -0.07062
C          C       0.18408   0.80099   0.11247  -0.18234
C          C       0.47243   0.61937   0.72598  -0.17455
C          C       0.19322   0.08999   0.52705  -0.05541
C          C       0.47309   0.56300   0.66612  -0.05652
C          C       0.38089   0.27411   0.52771  -0.17383
C          C       0.68883   0.80121   0.61699  -0.18435
C          C       0.61909   0.14670   0.89289  -0.17469
C          C       0.20287   0.88922   0.74772   0.04223
C          C       0.43693   0.91012   0.10290  -0.05611
C          C       0.92834   0.11212   0.31131  -0.18185
C          C       0.45498   0.25221   0.14126   0.04449
C          C       0.85868   0.54489   0.74787   0.04345
C          C       0.98466   0.61614   0.87621  -0.06616
C          C       0.20288   0.45516   0.31364   0.04141
C          C       0.88912   0.68634   0.14140   0.04358
C          C       0.25988   0.38403   0.36820  -0.06892
C          C       0.74758   0.85863   0.54468   0.04152
C          C       0.61734   0.81613   0.92882  -0.18412
C          C       0.38377   0.36837   0.25913  -0.06751
C          C       0.68615   0.79721   0.54463   0.03977
C          C       0.10665   0.25363   0.72628  -0.17560
C          C       0.89068   0.87544   0.25942  -0.07159
C          C       0.85318   0.10663   0.38056  -0.17368
C          C       0.61728   0.68881   0.80157  -0.18190
C          C       0.87590   0.26020   0.89158  -0.06860
C          C       0.89062   0.63139   0.01525  -0.07114
C          C       0.25239   0.14130   0.45524   0.04313
C          C       0.19916   0.88798   0.81617  -0.18456
C          C       0.43713   0.33424   0.52703  -0.05790
C          C       0.68615   0.14144   0.88898   0.04005
C          C       0.01570   0.89175   0.63157  -0.06942
C          C       0.74613   0.85304   0.47228  -0.17336
C          C       0.74029   0.10866   0.12431  -0.06750
C          C       0.11267   0.18416   0.80132  -0.18210
C          C       0.10656   0.38045   0.85312  -0.17692
C          C       0.61619   0.87574   0.98498  -0.06634
C          C       0.18383   0.07134   0.38292  -0.18318
C          C       0.10324   0.19314   0.66643  -0.05717
C          C       0.10931   0.36880   0.98476  -0.07105
C          C       0.89685   0.80699   0.33369  -0.05480
C          C       0.85873   0.11088   0.31386   0.04305
C          C       0.33364   0.89646   0.80667  -0.05768
C          C       0.72629   0.10678   0.25363  -0.17462
C          C       0.52741   0.25364   0.14697  -0.17533
C          C       0.11269   0.31145   0.92859  -0.18296
C          C       0.11091   0.31371   0.85868   0.04366
C          C       0.33384   0.52713   0.43741  -0.05936
C          C       0.54494   0.68633   0.79726   0.04294
C          C       0.31132   0.19870   0.38299  -0.18223
C          C       0.92854   0.61725   0.81642  -0.18262
C          C       0.10938   0.12462   0.74058  -0.07064
C          C       0.80696   0.33404   0.89694  -0.05900
C          C       0.31149   0.92844   0.11257  -0.18354
C          C       0.38365   0.12423   0.01497  -0.06740
C          C       0.89338   0.74646   0.27385  -0.17637
C          C       0.27399   0.52767   0.38083  -0.17280
C          C       0.19895   0.38282   0.31092  -0.18473
C          C       0.89345   0.61957   0.14689  -0.17616
C          C       0.72601   0.47239   0.61929  -0.17399
C          C       0.14144   0.88921   0.68629   0.04274
C          C       0.91024   0.10317   0.43705  -0.05322
C          C       0.14139   0.45506   0.25216   0.04402
C          C       0.79719   0.54482   0.68627   0.04455
C          C       0.79729   0.11099   0.25239   0.04554
C          C       0.66604   0.47305   0.56290  -0.05770
C          C       0.98444   0.10843   0.36854  -0.06911
C          C       0.74040   0.61607   0.63181  -0.06473
C          C       0.31389   0.85866   0.11107   0.04342
C          C       0.61893   0.72594   0.47221  -0.17497
C          C       0.36849   0.25968   0.38410  -0.07019
C          C       0.88910   0.74773   0.20282   0.04359
C          C       0.47255   0.74632   0.85290  -0.17395
C          C       0.52750   0.38067   0.27403  -0.17554
C          C       0.81629   0.92866   0.61703  -0.18507
C          C       0.56280   0.08984   0.89671  -0.05974
C          C       0.26008   0.89165   0.87591  -0.06945
C          C       0.81598   0.19909   0.88757  -0.18457
C          C       0.19302   0.66606   0.10326  -0.05553
C          C       0.45507   0.31368   0.20272   0.04314
C          C       0.88726   0.68869   0.07152  -0.18252
C          C       0.47316   0.80684   0.90986  -0.05739
C          C       0.01545   0.38390   0.12370  -0.06628
C          C       0.08984   0.89671   0.56295  -0.05599
C          C       0.91004   0.47306   0.80681  -0.05596
C          C       0.63143   0.01566   0.89156  -0.07227
C          C       0.63179   0.74015   0.61588  -0.07211
C          C       0.38066   0.85320   0.10678  -0.17419
C          C       0.25376   0.72620   0.10705  -0.17438
C          C       0.14697   0.52751   0.25376  -0.17294
C          C       0.80124   0.11241   0.18416  -0.18272
C          C       0.87623   0.98453   0.61587  -0.06832
C          C       0.80689   0.90986   0.47287  -0.06055
C          C       0.12423   0.73999   0.10873  -0.06759
C          C       0.54500   0.74777   0.85870   0.04414
C          C       0.27378   0.89316   0.74630  -0.17319
C          C       0.25396   0.14692   0.52766  -0.17393
C          C       0.36870   0.98453   0.10880  -0.06713
C          C       0.74751   0.20282   0.88896   0.04104
C          C       0.56267   0.66583   0.47286  -0.05855
C          C       0.38256   0.18389   0.07116  -0.18326
C          C       0.11094   0.25234   0.79732   0.04283
C          C       0.07144   0.38270   0.18352  -0.18421
C          C       0.38270   0.31114   0.19837  -0.18213
C          C       0.14684   0.89316   0.61938  -0.17434
C          C       0.52677   0.43695   0.33393  -0.05844
C          C       0.74621   0.27385   0.89304  -0.17511
C          C       0.08995   0.52695   0.19324  -0.05738
C          C       0.07169   0.88789   0.68872  -0.18390
C          C       0.12398   0.01527   0.38406  -0.06998
C          C       0.80133   0.61714   0.68896  -0.18234
C          C       0.88735   0.81585   0.19876  -0.18216
C          C       0.89693   0.56324   0.08981  -0.05415
C          C       0.68852   0.07159   0.88760  -0.18455
C          C       0.25243   0.79717   0.11111   0.04249
N          N       0.10459   0.43147   0.97612   0.31622
N          N       0.87219   0.97563   0.54443   0.31449
N          N       0.43124   0.32738   0.45551   0.31599
N          N       0.02426   0.89620   0.56879   0.31673
N          N       0.45517   0.43116   0.32684   0.31676
N          N       0.02411   0.45538   0.12801   0.31772
N          N       0.67299   0.10417   0.12826   0.31828
N          N       0.45508   0.12822   0.02387   0.31827
N          N       0.67288   0.54463   0.56885   0.31757
N          N       0.87201   0.32767   0.89643   0.31400
N          N       0.54466   0.56866   0.67318   0.31566
N          N       0.54472   0.87163   0.97607   0.31640
N          N       0.97604   0.54464   0.87183   0.31712
N          N       0.56885   0.67243   0.54446   0.31466
N          N       0.32718   0.45556   0.43148   0.31558
N          N       0.12818   0.67263   0.10409   0.31583
N          N       0.89536   0.87150   0.32678   0.31577
N          N       0.32717   0.89566   0.87160   0.31569
N          N       0.10479   0.12864   0.67328   0.31580
N          N       0.12809   0.02411   0.45550   0.31648
N          N       0.43127   0.97586   0.10391   0.31635
N          N       0.89548   0.56876   0.02388   0.31622
N          N       0.97605   0.10422   0.43146   0.31722
N          N       0.56876   0.02434   0.89638   0.31538
O          O       0.93268   0.38619   0.90205  -0.50882
O          O       0.96882   0.45367   0.06828  -0.50709
O          O       0.61504   0.09963   0.06846  -0.50441
O          O       0.10030   0.06874   0.61528  -0.51242
O          O       0.54663   0.93153   0.03142  -0.51186
O          O       0.38529   0.89997   0.93121  -0.50713
O          O       0.38524   0.45391   0.48512  -0.50749
O          O       0.03128   0.54627   0.93145  -0.50393
O          O       0.45307   0.06820   0.96862  -0.51040
O          O       0.48432   0.03108   0.09872  -0.50973
O          O       0.61489   0.54651   0.51554  -0.50511
O          O       0.45300   0.48429   0.38478  -0.50982
O          O       0.89999   0.93149   0.38475  -0.51092
O          O       0.51616   0.61397   0.54673  -0.50977
O          O       0.51603   0.96945   0.90218  -0.50930
O          O       0.06758   0.96916   0.45340  -0.50718
O          O       0.03134   0.09984   0.48501  -0.50449
O          O       0.96897   0.90067   0.51520  -0.50818
O          O       0.48423   0.38567   0.45335  -0.51022
O          O       0.54659   0.51529   0.61515  -0.51277
O          O       0.06761   0.61420   0.09854  -0.50709
O          O       0.10006   0.48491   0.03149  -0.51270
O          O       0.93285   0.03070   0.54665  -0.50850
O          O       0.90008   0.51544   0.96852  -0.51174

