data_crystal

_audit_creation_method 'AiiDA-DDEC plugin'

_cell_length_a        20.87402
_cell_length_b        20.87696
_cell_length_c        23.11303

_cell_angle_alpha     106.23359
_cell_angle_beta     106.86191
_cell_angle_gamma     111.60621

_symmetry_space_group_name_Hall 'P 1'
_symmetry_space_group_name_H-M  'P 1'

loop_
_symmetry_equiv_pos_as_xyz
 'x,y,z'

loop_
_atom_site_label
_atom_site_type_symbol
_atom_site_fract_x
_atom_site_fract_y
_atom_site_fract_z
_atom_site_charge
Gd         Gd      0.62462   0.21872   0.38010   2.03091
Gd         Gd      0.52107   0.29344   0.27888   2.03170
Gd         Gd      0.16074   0.25540   0.87962   2.03130
Gd         Gd      0.98504   0.25802   0.77894   2.03199
Gd         Gd      0.83927   0.74460   0.12038   2.03129
Gd         Gd      0.01497   0.74198   0.22106   2.03197
Gd         Gd      0.37539   0.78127   0.61990   2.03084
Gd         Gd      0.47893   0.70656   0.72112   2.03174
H          H       0.37162   0.28667   0.38056   0.13035
H          H       0.47406   0.17986   0.48053   0.12704
H          H       0.29556   0.28601   0.44681   0.10835
H          H       0.39651   0.17643   0.54571   0.10748
H          H       0.13875   0.25366   0.53520   0.11853
H          H       0.28433   0.21883   0.68473   0.11395
H          H       0.06317   0.26269   0.60080   0.12878
H          H       0.20853   0.22742   0.74913   0.10336
H          H       0.63513   0.27328   0.14561   0.12870
H          H       0.79227   0.25022   0.29479   0.12695
H          H       0.70213   0.25714   0.07336   0.10811
H          H       0.86301   0.23842   0.22496   0.11521
H          H       0.82967   0.23323   0.94899   0.11972
H          H       0.00422   0.25369   0.12059   0.12015
H          H       0.91412   0.24165   0.89163   0.10589
H          H       0.08781   0.26071   0.06125   0.12807
H          H       0.70241   0.02226   0.33720   0.12838
H          H       0.52735   0.98697   0.40557   0.12862
H          H       0.67645   0.88788   0.31197   0.11494
H          H       0.49810   0.85123   0.37779   0.12171
H          H       0.48492   0.63255   0.36781   0.12112
H          H       0.59724   0.63791   0.23776   0.10825
H          H       0.46759   0.50218   0.35092   0.12895
H          H       0.57831   0.50712   0.22067   0.13090
H          H       0.09341   0.50919   0.88048   0.13072
H          H       0.29980   0.50604   0.97970   0.12729
H          H       0.16056   0.65134   0.94625   0.10849
H          H       0.36874   0.64878   0.04484   0.10713
H          H       0.28202   0.89661   0.03545   0.11777
H          H       0.46578   0.89952   0.18461   0.11413
H          H       0.33914   0.03779   0.10122   0.12815
H          H       0.52225   0.03964   0.24901   0.10439
H          H       0.87169   0.00986   0.64474   0.12821
H          H       0.04432   0.00296   0.79421   0.13037
H          H       0.81553   0.87049   0.57330   0.10792
H          H       0.98646   0.86238   0.72524   0.11606
H          H       0.71666   0.61942   0.44858   0.11877
H          H       0.86730   0.61583   0.61995   0.12059
H          H       0.65074   0.47790   0.39107   0.10588
H          H       0.80065   0.47314   0.56060   0.12832
H          H       0.31491   0.13530   0.83792   0.12846
H          H       0.41840   0.37829   0.90464   0.12795
H          H       0.42394   0.13548   0.81283   0.11487
H          H       0.52675   0.37933   0.87765   0.12268
H          H       0.73432   0.38151   0.86846   0.12067
H          H       0.59910   0.14013   0.73635   0.10866
H          H       0.84810   0.38261   0.85176   0.12908
H          H       0.71324   0.14275   0.71945   0.12963
H          H       0.90660   0.49081   0.11952   0.13104
H          H       0.70021   0.49396   0.02030   0.12702
H          H       0.83945   0.34866   0.05375   0.10889
H          H       0.63127   0.35122   0.95516   0.10677
H          H       0.71799   0.10339   0.96455   0.11788
H          H       0.53423   0.10048   0.81539   0.11381
H          H       0.66087   0.96221   0.89878   0.12846
H          H       0.47776   0.96035   0.75099   0.10420
H          H       0.12832   0.99014   0.35526   0.12860
H          H       0.95569   0.99704   0.20579   0.13023
H          H       0.18448   0.12951   0.42670   0.10806
H          H       0.01354   0.13762   0.27476   0.11572
H          H       0.28335   0.38058   0.55142   0.11896
H          H       0.13271   0.38417   0.38004   0.12048
H          H       0.34926   0.52210   0.60893   0.10600
H          H       0.19936   0.52686   0.43940   0.12808
H          H       0.68509   0.86470   0.16208   0.12861
H          H       0.58161   0.62171   0.09536   0.12814
H          H       0.57606   0.86452   0.18717   0.11454
H          H       0.47326   0.62067   0.12235   0.12263
H          H       0.26568   0.61848   0.13154   0.12099
H          H       0.40091   0.85986   0.26365   0.10874
H          H       0.15191   0.61738   0.14824   0.12903
H          H       0.28676   0.85724   0.28055   0.12924
H          H       0.62839   0.71333   0.61944   0.13042
H          H       0.52595   0.82014   0.51947   0.12668
H          H       0.70445   0.71399   0.55319   0.10890
H          H       0.60349   0.82357   0.45429   0.10744
H          H       0.86126   0.74633   0.46480   0.11862
H          H       0.71567   0.78117   0.31527   0.11362
H          H       0.93684   0.73731   0.39920   0.12923
H          H       0.79148   0.77257   0.25087   0.10331
H          H       0.36488   0.72671   0.85439   0.12906
H          H       0.20774   0.74978   0.70521   0.12696
H          H       0.29788   0.74286   0.92664   0.10819
H          H       0.13700   0.76158   0.77504   0.11467
H          H       0.17034   0.76677   0.05101   0.11999
H          H       0.99579   0.74631   0.87941   0.12020
H          H       0.08589   0.75834   0.10837   0.10596
H          H       0.91219   0.73929   0.93875   0.12770
H          H       0.29760   0.97774   0.66280   0.12832
H          H       0.47266   0.01302   0.59443   0.12898
H          H       0.32356   0.11211   0.68803   0.11451
H          H       0.50191   0.14877   0.62221   0.12181
H          H       0.51509   0.36745   0.63219   0.12142
H          H       0.40277   0.36209   0.76224   0.10818
H          H       0.53241   0.49782   0.64908   0.12912
H          H       0.42170   0.49288   0.77933   0.13053
C          C       0.47488   0.23694   0.38992   0.64730
C          C       0.42743   0.23378   0.42728  -0.03986
C          C       0.13173   0.24675   0.67935  -0.04820
C          C       0.37665   0.26317   0.41710  -0.08469
C          C       0.43463   0.20266   0.47384  -0.08999
C          C       0.33460   0.26290   0.45394  -0.13007
C          C       0.39178   0.20093   0.51002  -0.13361
C          C       0.34176   0.23194   0.50110   0.12960
C          C       0.29869   0.23211   0.53834  -0.08185
C          C       0.26057   0.23312   0.56963  -0.10043
C          C       0.15373   0.24834   0.58219  -0.13268
C          C       0.23597   0.22840   0.66659  -0.13317
C          C       0.21690   0.23626   0.60593   0.14534
C          C       0.11171   0.25329   0.61851  -0.07829
C          C       0.19383   0.23377   0.70269  -0.07970
C          C       0.08733   0.25343   0.71804   0.63625
C          C       0.66813   0.27007   0.26613   0.64666
C          C       0.71016   0.26324   0.22454  -0.04114
C          C       0.68489   0.26542   0.16217  -0.08103
C          C       0.77405   0.25266   0.24672  -0.08856
C          C       0.72243   0.25689   0.12219  -0.12413
C          C       0.81294   0.24565   0.20774  -0.13480
C          C       0.78763   0.24765   0.14478   0.13021
C          C       0.82823   0.24210   0.10578  -0.08289
C          C       0.86525   0.24042   0.07346  -0.11225
C          C       0.91121   0.24255   0.03880   0.14079
C          C       0.88596   0.23907   0.97359  -0.13068
C          C       0.98464   0.25027   0.07021  -0.13496
C          C       0.93332   0.24377   0.94148  -0.07351
C          C       0.03123   0.25446   0.03748  -0.08247
C          C       0.00610   0.25139   0.97283  -0.04842
C          C       0.05649   0.25580   0.93875   0.63698
C          C       0.62907   0.09034   0.38488   0.55373
C          C       0.61605   0.01189   0.37245  -0.03284
C          C       0.65838   0.98423   0.34620  -0.08939
C          C       0.55910   0.96412   0.38486  -0.09164
C          C       0.64378   0.90966   0.33208  -0.13548
C          C       0.54334   0.88910   0.36982  -0.13538
C          C       0.58521   0.86051   0.34276   0.13604
C          C       0.56899   0.78413   0.32700  -0.10272
C          C       0.55521   0.71843   0.31520  -0.08234
C          C       0.54224   0.64365   0.30381   0.13591
C          C       0.50479   0.60471   0.33546  -0.13148
C          C       0.56860   0.60784   0.26204  -0.13528
C          C       0.49521   0.53247   0.32616  -0.08711
C          C       0.55817   0.53534   0.25250  -0.08937
C          C       0.52179   0.49735   0.28470  -0.03119
C          C       0.51283   0.42092   0.27620   0.55312
C          C       0.15164   0.41499   0.88927   0.64940
C          C       0.19277   0.49977   0.92676  -0.04325
C          C       0.43332   0.04722   0.17957  -0.04818
C          C       0.15347   0.54060   0.91675  -0.08196
C          C       0.27049   0.53893   0.97308  -0.08942
C          C       0.19074   0.61942   0.95345  -0.13251
C          C       0.30855   0.61793   0.00925  -0.13231
C          C       0.26882   0.65924   0.00050   0.12946
C          C       0.30598   0.73946   0.03795  -0.08082
C          C       0.33639   0.80880   0.06942  -0.10206
C          C       0.33421   0.92839   0.08245  -0.13093
C          C       0.43824   0.92993   0.16662  -0.13357
C          C       0.36976   0.88869   0.10602   0.14648
C          C       0.36590   0.00668   0.11884  -0.07884
C          C       0.46933   0.00817   0.20277  -0.08086
C          C       0.46540   0.13030   0.21809   0.63414
C          C       0.99601   0.09803   0.76498   0.64860
C          C       0.96090   0.01427   0.72371  -0.04436
C          C       0.89621   0.97683   0.66148  -0.08093
C          C       0.99371   0.97277   0.74623  -0.09045
C          C       0.86478   0.89925   0.62196  -0.12476
C          C       0.96179   0.89489   0.70768  -0.13648
C          C       0.89677   0.85686   0.64478   0.13189
C          C       0.86353   0.77726   0.60596  -0.08281
C          C       0.83319   0.70801   0.57350  -0.11373
C          C       0.79653   0.62744   0.53855   0.14225
C          C       0.73507   0.58760   0.47323  -0.13064
C          C       0.82017   0.58528   0.56977  -0.13654
C          C       0.69817   0.50820   0.44103  -0.07185
C          C       0.78317   0.50607   0.53701  -0.08195
C          C       0.72167   0.46668   0.47246  -0.05094
C          C       0.68305   0.38226   0.43873   0.63840
C          C       0.29417   0.25651   0.88457   0.55360
C          C       0.36021   0.25674   0.87224  -0.03277
C          C       0.36178   0.18817   0.84663  -0.09108
C          C       0.42050   0.32579   0.88436  -0.08896
C          C       0.42219   0.18827   0.83258  -0.13426
C          C       0.48064   0.32631   0.86967  -0.13794
C          C       0.48202   0.25727   0.84295   0.13752
C          C       0.54255   0.25748   0.82718  -0.10323
C          C       0.59610   0.25888   0.81502  -0.08409
C          C       0.65940   0.26063   0.80344   0.13803
C          C       0.72995   0.32967   0.83571  -0.13144
C          C       0.65350   0.19295   0.76107  -0.13711
C          C       0.79305   0.33036   0.82657  -0.08673
C          C       0.71669   0.19432   0.75169  -0.08666
C          C       0.78690   0.26283   0.78461  -0.03325
C          C       0.85515   0.26378   0.77646   0.55423
C          C       0.84836   0.58501   0.11073   0.64923
C          C       0.80724   0.50023   0.07324  -0.04306
C          C       0.56669   0.95277   0.82043  -0.04816
C          C       0.84653   0.45940   0.08325  -0.08178
C          C       0.72952   0.46106   0.02692  -0.08980
C          C       0.80926   0.38058   0.04655  -0.13263
C          C       0.69145   0.38207   0.99075  -0.13231
C          C       0.73119   0.34076  -0.00050   0.12966
C          C       0.69403   0.26054   0.96205  -0.08103
C          C       0.66362   0.19120   0.93058  -0.10198
C          C       0.66579   0.07161   0.91755  -0.13087
C          C       0.56177   0.07007   0.83338  -0.13381
C          C       0.63025   0.11131   0.89398   0.14655
C          C       0.63410   0.99332   0.88116  -0.07864
C          C       0.53068   0.99183   0.79723  -0.08080
C          C       0.53460   0.86969   0.78191   0.63377
C          C       0.00400   0.90197   0.23502   0.64841
C          C       0.03911   0.98572   0.27629  -0.04436
C          C       0.10380   0.02317   0.33852  -0.08083
C          C       0.00629   0.02723   0.25377  -0.09041
C          C       0.13523   0.10075   0.37804  -0.12485
C          C       0.03821   0.10511   0.29232  -0.13666
C          C       0.10324   0.14314   0.35522   0.13197
C          C       0.13648   0.22274   0.39404  -0.08283
C          C       0.16681   0.29199   0.42650  -0.11368
C          C       0.20348   0.37255   0.46145   0.14220
C          C       0.26494   0.41239   0.52677  -0.13033
C          C       0.17984   0.41471   0.43023  -0.13664
C          C       0.30184   0.49180   0.55897  -0.07208
C          C       0.21684   0.49393   0.46299  -0.08224
C          C       0.27834   0.53332   0.52754  -0.05066
C          C       0.31696   0.61774   0.56127   0.63869
C          C       0.70583   0.74349   0.11543   0.55329
C          C       0.63979   0.74326   0.12776  -0.03272
C          C       0.63822   0.81183   0.15337  -0.09095
C          C       0.57951   0.67420   0.11564  -0.08855
C          C       0.57781   0.81173   0.16742  -0.13437
C          C       0.51937   0.67369   0.13033  -0.13812
C          C       0.51799   0.74272   0.15705   0.13724
C          C       0.45746   0.74252   0.17282  -0.10300
C          C       0.40390   0.74112   0.18498  -0.08424
C          C       0.34060   0.73937   0.19656   0.13809
C          C       0.27006   0.67033   0.16429  -0.13132
C          C       0.34650   0.80704   0.23893  -0.13705
C          C       0.20696   0.66964   0.17343  -0.08695
C          C       0.28331   0.80568   0.24831  -0.08653
C          C       0.21311   0.73717   0.21539  -0.03337
C          C       0.14486   0.73622   0.22354   0.55446
C          C       0.52512   0.76306   0.61008   0.64745
C          C       0.57258   0.76622   0.57272  -0.03970
C          C       0.86828   0.75324   0.32065  -0.04796
C          C       0.62335   0.73683   0.58290  -0.08482
C          C       0.56537   0.79733   0.52616  -0.09033
C          C       0.66540   0.73710   0.54606  -0.13007
C          C       0.60823   0.79906   0.48998  -0.13347
C          C       0.65825   0.76806   0.49890   0.12949
C          C       0.70132   0.76789   0.46166  -0.08218
C          C       0.73944   0.76688   0.43037  -0.09998
C          C       0.84628   0.75165   0.41781  -0.13277
C          C       0.76403   0.77160   0.33341  -0.13328
C          C       0.78311   0.76373   0.39407   0.14523
C          C       0.88829   0.74671   0.38149  -0.07810
C          C       0.80618   0.76623   0.29731  -0.07993
C          C       0.91268   0.74656   0.28196   0.63575
C          C       0.33188   0.72993   0.73387   0.64660
C          C       0.28984   0.73675   0.77546  -0.04131
C          C       0.31512   0.73458   0.83783  -0.08079
C          C       0.22596   0.74734   0.75328  -0.08869
C          C       0.27758   0.74311   0.87781  -0.12406
C          C       0.18707   0.75435   0.79226  -0.13469
C          C       0.21238   0.75235   0.85522   0.12993
C          C       0.17177   0.75790   0.89422  -0.08229
C          C       0.13476   0.75957   0.92654  -0.11270
C          C       0.08880   0.75745   0.96120   0.14086
C          C       0.11404   0.76092   0.02641  -0.13047
C          C       0.01537   0.74973   0.92979  -0.13501
C          C       0.06669   0.75623   0.05852  -0.07360
C          C       0.96878   0.74553   0.96252  -0.08271
C          C       0.99391   0.74861   0.02717  -0.04832
C          C       0.94352   0.74419   0.06125   0.63773
C          C       0.37094   0.90965   0.61512   0.55373
C          C       0.38396   0.98811   0.62755  -0.03262
C          C       0.34163   0.01576   0.65380  -0.08988
C          C       0.44091   0.03588   0.61514  -0.09159
C          C       0.35623   0.09033   0.66792  -0.13552
C          C       0.45667   0.11090   0.63018  -0.13503
C          C       0.41480   0.13949   0.65724   0.13594
C          C       0.43102   0.21587   0.67300  -0.10275
C          C       0.44479   0.28157   0.68480  -0.08237
C          C       0.45777   0.35635   0.69619   0.13623
C          C       0.49522   0.39529   0.66454  -0.13132
C          C       0.43140   0.39215   0.73796  -0.13567
C          C       0.50480   0.46753   0.67384  -0.08689
C          C       0.44184   0.46466   0.74750  -0.08939
C          C       0.47822   0.50264   0.71530  -0.03160
C          C       0.48718   0.57908   0.72380   0.55358
O          O       0.53042   0.22364   0.41054  -0.67526
O          O       0.45810   0.25335   0.34028  -0.66545
O          O       0.11013   0.25329   0.77646  -0.76379
O          O       0.02724   0.25899   0.69452  -0.61719
O          O       0.68743   0.25845   0.31845  -0.67202
O          O       0.61462   0.28632   0.24663  -0.67216
O          O       0.12047   0.25800   0.96570  -0.61766
O          O       0.03500   0.25682   0.88067  -0.76412
O          O       0.59362   0.11660   0.41314  -0.63884
O          O       0.67262   0.13026   0.36436  -0.64543
O          O       0.53614   0.38787   0.23757  -0.64531
O          O       0.48408   0.38886   0.30937  -0.63976
O          O       0.18542   0.37960   0.90898  -0.67587
O          O       0.08520   0.38269   0.84036  -0.66545
O          O       0.52398   0.16621   0.27652  -0.76354
O          O       0.43618   0.16662   0.19429  -0.61578
O          O       0.06001   0.13076   0.81711  -0.67269
O          O       0.96076   0.13249   0.74565  -0.67244
O          O       0.70813   0.34525   0.46552  -0.61753
O          O       0.62336   0.34590   0.38117  -0.76260
O          O       0.29524   0.32018   0.91069  -0.63858
O          O       0.23455   0.19262   0.86605  -0.64576
O          O       0.84963   0.20230   0.73716  -0.64655
O          O       0.92055   0.32533   0.81044  -0.63832
O          O       0.81458   0.62040   0.09102  -0.67612
O          O       0.91481   0.61730   0.15964  -0.66517
O          O       0.47602   0.83379   0.72347  -0.76367
O          O       0.56382   0.83338   0.80571  -0.61516
O          O       0.94000   0.86924   0.18289  -0.67298
O          O       0.03925   0.86751   0.25435  -0.67190
O          O       0.29188   0.65475   0.53448  -0.61806
O          O       0.37665   0.65410   0.61883  -0.76250
O          O       0.70477   0.67981   0.08931  -0.63821
O          O       0.76546   0.80738   0.13394  -0.64576
O          O       0.15038   0.79770   0.26284  -0.64688
O          O       0.07946   0.67467   0.18956  -0.63839
O          O       0.46959   0.77636   0.58946  -0.67568
O          O       0.54191   0.74665   0.65972  -0.66525
O          O       0.88988   0.74671   0.22354  -0.76394
O          O       0.97277   0.74101   0.30548  -0.61642
O          O       0.31258   0.74154   0.68155  -0.67232
O          O       0.38539   0.71367   0.75336  -0.67167
O          O       0.87954   0.74200   0.03430  -0.61857
O          O       0.96501   0.74318   0.11933  -0.76420
O          O       0.40639   0.88340   0.58686  -0.63826
O          O       0.32738   0.86973   0.63564  -0.64592
O          O       0.46387   0.61213   0.76243  -0.64593
O          O       0.51593   0.61114   0.69063  -0.63953

