data_crystal

_audit_creation_method 'AiiDA-DDEC plugin'

_cell_length_a        18.33716
_cell_length_b        18.33507
_cell_length_c        18.33530

_cell_angle_alpha     109.57742
_cell_angle_beta     109.58971
_cell_angle_gamma     109.58949

_symmetry_space_group_name_Hall 'P 1'
_symmetry_space_group_name_H-M  'P 1'

loop_
_symmetry_equiv_pos_as_xyz
 'x,y,z'

loop_
_atom_site_label
_atom_site_type_symbol
_atom_site_fract_x
_atom_site_fract_y
_atom_site_fract_z
_atom_site_charge
Zn         Zn      0.14880   0.74836   0.66835   0.78632
Zn         Zn      0.66835   0.14878   0.74835   0.78644
Zn         Zn      0.74835   0.66836   0.14882   0.78648
Zn         Zn      0.85120   0.25164   0.33165   0.78637
Zn         Zn      0.33165   0.85122   0.25165   0.78656
Zn         Zn      0.25165   0.33165   0.85119   0.78659
H          H       0.13158   0.77554   0.50525   0.10512
H          H       0.01720   0.68942   0.33944   0.11874
H          H       0.88224   0.54365   0.27827   0.11742
H          H       0.86149   0.48993   0.38309   0.12841
H          H       0.75427   0.42540   0.53425   0.11992
H          H       0.64764   0.31568   0.55098   0.11570
H          H       0.86307   0.37900   0.79293   0.12618
H          H       0.97242   0.48872   0.77758   0.11470
H          H       0.19593   0.68351   0.79215   0.10131
H          H       0.29803   0.76559   0.95668   0.11108
H          H       0.07461   0.72533  -0.00162   0.12643
H          H       0.97027   0.64194   0.83313   0.11608
H          H       0.85849   0.46062   0.49776   0.30606
H          H       0.50532   0.13156   0.77549   0.10493
H          H       0.33950   0.01720   0.68939   0.11855
H          H       0.27828   0.88223   0.54363   0.11738
H          H       0.38307   0.86144   0.48990   0.12867
H          H       0.53423   0.75427   0.42539   0.11988
H          H       0.55097   0.64766   0.31569   0.11571
H          H       0.79293   0.86313   0.37906   0.12592
H          H       0.77754   0.97244   0.48875   0.11254
H          H       0.79216   0.19594   0.68351   0.10135
H          H       0.95667   0.29804   0.76559   0.11112
H          H      -0.00162   0.07461   0.72533   0.12637
H          H       0.83314   0.97026   0.64194   0.11850
H          H       0.49776   0.85847   0.46061   0.30596
H          H       0.77553   0.50527   0.13159   0.10511
H          H       0.68942   0.33946   0.01720   0.11891
H          H       0.54366   0.27829   0.88224   0.11741
H          H       0.48994   0.38311   0.86148   0.12850
H          H       0.42539   0.53426   0.75426   0.11994
H          H       0.31567   0.55099   0.64765   0.11577
H          H       0.37901   0.79292   0.86307   0.12613
H          H       0.48872   0.77756   0.97242   0.11266
H          H       0.68349   0.79213   0.19593   0.10135
H          H       0.76556   0.95665   0.29803   0.11122
H          H       0.72533  -0.00160   0.07461   0.12631
H          H       0.64194   0.83315   0.97026   0.11856
H          H       0.46063   0.49775   0.85848   0.30612
H          H       0.86842   0.22446   0.49475   0.10498
H          H       0.98280   0.31059   0.66057   0.11875
H          H       0.11776   0.45635   0.72173   0.11756
H          H       0.13852   0.51007   0.61691   0.12849
H          H       0.24574   0.57460   0.46576   0.11996
H          H       0.35236   0.68432   0.44903   0.11580
H          H       0.13693   0.62100   0.20707   0.12606
H          H       0.02758   0.51128   0.22243   0.11459
H          H       0.80407   0.31649   0.20785   0.10132
H          H       0.70197   0.23441   0.04332   0.11097
H          H       0.92539   0.27467   0.00162   0.12640
H          H       0.02973   0.35806   0.16687   0.11614
H          H       0.14151   0.53938   0.50225   0.30612
H          H       0.49468   0.86844   0.22451   0.10489
H          H       0.66051   0.98281   0.31062   0.11856
H          H       0.72172   0.11778   0.45638   0.11747
H          H       0.61693   0.13856   0.51010   0.12879
H          H       0.46577   0.24574   0.57461   0.11994
H          H       0.44903   0.35234   0.68431   0.11580
H          H       0.20707   0.13687   0.62095   0.12588
H          H       0.22246   0.02756   0.51125   0.11250
H          H       0.20785   0.80407   0.31650   0.10141
H          H       0.04333   0.70196   0.23441   0.11096
H          H       0.00162   0.92540   0.27468   0.12637
H          H       0.16687   0.02974   0.35807   0.11855
H          H       0.50225   0.14153   0.53939   0.30601
H          H       0.22447   0.49473   0.86841   0.10504
H          H       0.31058   0.66054   0.98280   0.11884
H          H       0.45634   0.72171   0.11776   0.11742
H          H       0.51006   0.61689   0.13852   0.12853
H          H       0.57461   0.46574   0.24574   0.11997
H          H       0.68433   0.44901   0.35236   0.11584
H          H       0.62100   0.20708   0.13693   0.12601
H          H       0.51128   0.22244   0.02759   0.11250
H          H       0.31651   0.20787   0.80408   0.10138
H          H       0.23444   0.04335   0.70197   0.11108
H          H       0.27467   0.00160   0.92539   0.12630
H          H       0.35806   0.16685   0.02974   0.11862
H          H       0.53937   0.50225   0.14152   0.30613
C          C       0.07175   0.71112   0.47406   0.10255
C          C       0.00860   0.66324   0.38293  -0.12228
C          C       0.93260   0.58216   0.34920  -0.01014
C          C       0.92083   0.55183   0.40688  -0.15759
C          C       0.98684   0.60399   0.49785   0.14481
C          C       0.98168   0.58405   0.56692   0.23322
C          C       0.01820   0.60703   0.70289   0.09744
C          C       0.93377   0.52847   0.64326   0.07795
C          C       0.87153   0.46562   0.65508   0.04776
C          C       0.77913   0.41588   0.59115  -0.12925
C          C       0.71884   0.35436   0.60023  -0.09313
C          C       0.74871   0.34107   0.67321  -0.05228
C          C       0.84060   0.39048   0.73706  -0.08940
C          C       0.90141   0.45175   0.72817  -0.13775
C          C       0.68356   0.27105   0.67941   0.57466
C          C       0.07551   0.65461   0.80062   0.05378
C          C       0.16863   0.69136   0.83660  -0.12562
C          C       0.22609   0.73733   0.92869  -0.09970
C          C       0.19236   0.74816   0.98730  -0.02666
C          C       0.09985   0.71449   0.95215  -0.09107
C          C       0.04182   0.66778   0.85965  -0.13095
C          C       0.25514   0.79150   0.08527   0.55326
C          C       0.47410   0.07172   0.71108   0.10282
C          C       0.38298   0.00858   0.66321  -0.12174
C          C       0.34922   0.93257   0.58213  -0.01013
C          C       0.40689   0.92079   0.55180  -0.15807
C          C       0.49785   0.98679   0.60396   0.14547
C          C       0.56692   0.98165   0.58403   0.23295
C          C       0.70289   0.01820   0.60702   0.09717
C          C       0.64326   0.93376   0.52846   0.07796
C          C       0.65506   0.87153   0.46562   0.04765
C          C       0.59114   0.77913   0.41587  -0.12898
C          C       0.60022   0.71886   0.35437  -0.09325
C          C       0.67321   0.74874   0.34109  -0.05194
C          C       0.73705   0.84063   0.39051  -0.08912
C          C       0.72814   0.90143   0.45177  -0.13621
C          C       0.67939   0.68358   0.27108   0.57371
C          C       0.80062   0.07551   0.65461   0.05391
C          C       0.83660   0.16863   0.69137  -0.12588
C          C       0.92869   0.22609   0.73733  -0.09958
C          C       0.98730   0.19236   0.74816  -0.02666
C          C       0.95215   0.09985   0.71449  -0.09117
C          C       0.85965   0.04182   0.66778  -0.13283
C          C       0.08527   0.25514   0.79148   0.55334
C          C       0.71111   0.47408   0.07176   0.10281
C          C       0.66324   0.38295   0.00860  -0.12233
C          C       0.58217   0.34922   0.93260  -0.01017
C          C       0.55183   0.40690   0.92083  -0.15776
C          C       0.60399   0.49786   0.98685   0.14497
C          C       0.58404   0.56693   0.98169   0.23328
C          C       0.60702   0.70289   0.01820   0.09729
C          C       0.52846   0.64326   0.93377   0.07805
C          C       0.46562   0.65508   0.87153   0.04803
C          C       0.41587   0.59116   0.77913  -0.12943
C          C       0.35435   0.60024   0.71884  -0.09334
C          C       0.34106   0.67322   0.74871  -0.05194
C          C       0.39048   0.73706   0.84060  -0.08935
C          C       0.45175   0.72816   0.90140  -0.13640
C          C       0.27105   0.67941   0.68356   0.57455
C          C       0.65461   0.80062   0.07551   0.05382
C          C       0.69136   0.83659   0.16863  -0.12555
C          C       0.73731   0.92868   0.22609  -0.09992
C          C       0.74814   0.98730   0.19235  -0.02681
C          C       0.71449   0.95216   0.09985  -0.09115
C          C       0.66778   0.85966   0.04182  -0.13279
C          C       0.79148   0.08526   0.25513   0.55327
C          C       0.92825   0.28889   0.52594   0.10272
C          C       0.99140   0.33676   0.61707  -0.12233
C          C       0.06740   0.41784   0.65081  -0.01016
C          C       0.07917   0.44818   0.59312  -0.15760
C          C       0.01316   0.39601   0.50215   0.14488
C          C       0.01832   0.41595   0.43308   0.23328
C          C       0.98180   0.39297   0.29711   0.09740
C          C       0.06623   0.47154   0.35674   0.07800
C          C       0.12847   0.53438   0.34492   0.04777
C          C       0.22087   0.58413   0.40885  -0.12915
C          C       0.28116   0.64564   0.39977  -0.09320
C          C       0.25129   0.65893   0.32679  -0.05211
C          C       0.15940   0.60952   0.26294  -0.08939
C          C       0.09859   0.54825   0.27184  -0.13781
C          C       0.31644   0.72895   0.32060   0.57457
C          C       0.92449   0.34539   0.19938   0.05391
C          C       0.83138   0.30864   0.16340  -0.12566
C          C       0.77392   0.26267   0.07131  -0.09962
C          C       0.80765   0.25185   0.01270  -0.02689
C          C       0.90015   0.28551   0.04785  -0.09093
C          C       0.95818   0.33222   0.14035  -0.13103
C          C       0.74486   0.20850   0.91474   0.55347
C          C       0.52590   0.92829   0.28893   0.10278
C          C       0.61703   0.99142   0.33680  -0.12180
C          C       0.65079   0.06743   0.41787  -0.01000
C          C       0.59312   0.07921   0.44821  -0.15821
C          C       0.50215   0.01321   0.39604   0.14552
C          C       0.43308   0.01836   0.41597   0.23307
C          C       0.29711   0.98181   0.39298   0.09720
C          C       0.35675   0.06624   0.47154   0.07793
C          C       0.34494   0.12847   0.53438   0.04771
C          C       0.40887   0.22087   0.58413  -0.12903
C          C       0.39978   0.28115   0.64564  -0.09317
C          C       0.32680   0.25126   0.65891  -0.05185
C          C       0.26295   0.15937   0.60949  -0.08916
C          C       0.27186   0.09858   0.54823  -0.13637
C          C       0.32061   0.31642   0.72893   0.57353
C          C       0.19938   0.92449   0.34539   0.05387
C          C       0.16340   0.83137   0.30864  -0.12584
C          C       0.07131   0.77392   0.26267  -0.09955
C          C       0.01270   0.80764   0.25185  -0.02669
C          C       0.04785   0.90015   0.28551  -0.09116
C          C       0.14035   0.95818   0.33222  -0.13283
C          C       0.91474   0.74487   0.20853   0.55343
C          C       0.28889   0.52592   0.92824   0.10273
C          C       0.33676   0.61705   0.99140  -0.12227
C          C       0.41784   0.65078   0.06740  -0.00995
C          C       0.44817   0.59310   0.07917  -0.15774
C          C       0.39602   0.50214   0.01315   0.14495
C          C       0.41596   0.43308   0.01831   0.23336
C          C       0.39298   0.29711   0.98180   0.09800
C          C       0.47154   0.35674   0.06624   0.07776
C          C       0.53438   0.34492   0.12848   0.04803
C          C       0.58414   0.40884   0.22087  -0.12943
C          C       0.64565   0.39976   0.28116  -0.09325
C          C       0.65894   0.32679   0.25129  -0.05193
C          C       0.60952   0.26295   0.15940  -0.08920
C          C       0.54825   0.27185   0.09860  -0.13641
C          C       0.72895   0.32059   0.31644   0.57448
C          C       0.34539   0.19938   0.92449   0.05364
C          C       0.30865   0.16341   0.83138  -0.12561
C          C       0.26269   0.07132   0.77392  -0.09990
C          C       0.25186   0.01271   0.80765  -0.02667
C          C       0.28551   0.04784   0.90015  -0.09124
C          C       0.33222   0.14034   0.95819  -0.13275
C          C       0.20852   0.91474   0.74487   0.55321
N          N       0.06158   0.68217   0.53024  -0.25828
N          N       0.04611   0.63929   0.65341  -0.36091
N          N       0.91325   0.51647   0.55873  -0.27021
N          N       0.53026   0.06154   0.68212  -0.25896
N          N       0.65341   0.04609   0.63928  -0.36083
N          N       0.55873   0.91323   0.51646  -0.27014
N          N       0.68215   0.53025   0.06160  -0.25862
N          N       0.63928   0.65341   0.04611  -0.36094
N          N       0.51647   0.55873   0.91325  -0.27038
N          N       0.93842   0.31784   0.46976  -0.25849
N          N       0.95389   0.36071   0.34660  -0.36107
N          N       0.08675   0.48353   0.44127  -0.27023
N          N       0.46974   0.93846   0.31788  -0.25906
N          N       0.34660   0.95392   0.36072  -0.36106
N          N       0.44127   0.08677   0.48354  -0.27002
N          N       0.31785   0.46975   0.93840  -0.25873
N          N       0.36073   0.34660   0.95389  -0.36136
N          N       0.48353   0.44127   0.08675  -0.27026
O          O       0.71716   0.26172   0.74733  -0.53950
O          O       0.60243   0.22473   0.61777  -0.58647
O          O       0.33084   0.79625   0.11226  -0.56773
O          O       0.22886   0.82110   0.14006  -0.52998
O          O       0.74730   0.71717   0.26174  -0.53917
O          O       0.61775   0.60245   0.22475  -0.58604
O          O       0.11226   0.33084   0.79623  -0.56750
O          O       0.14006   0.22885   0.82106  -0.53025
O          O       0.26173   0.74733   0.71715  -0.53951
O          O       0.22473   0.61777   0.60243  -0.58634
O          O       0.79625   0.11225   0.33083  -0.56764
O          O       0.82106   0.14006   0.22883  -0.53011
O          O       0.28284   0.73828   0.25268  -0.53972
O          O       0.39757   0.77528   0.38223  -0.58624
O          O       0.66917   0.20375   0.88774  -0.56784
O          O       0.77114   0.17890   0.85995  -0.53003
O          O       0.25270   0.28283   0.73826  -0.53930
O          O       0.38225   0.39755   0.77525  -0.58586
O          O       0.88775   0.66916   0.20377  -0.56758
O          O       0.85995   0.77116   0.17894  -0.53027
O          O       0.73828   0.25268   0.28286  -0.53962
O          O       0.77527   0.38223   0.39758  -0.58620
O          O       0.20375   0.88775   0.66917  -0.56768
O          O       0.17895   0.85994   0.77117  -0.53010

