data_crystal

_audit_creation_method 'AiiDA-DDEC plugin'

_cell_length_a        14.73527
_cell_length_b        14.74490
_cell_length_c        17.22570

_cell_angle_alpha     103.37578
_cell_angle_beta     103.27818
_cell_angle_gamma     117.40508

_symmetry_space_group_name_Hall 'P 1'
_symmetry_space_group_name_H-M  'P 1'

loop_
_symmetry_equiv_pos_as_xyz
 'x,y,z'

loop_
_atom_site_label
_atom_site_type_symbol
_atom_site_fract_x
_atom_site_fract_y
_atom_site_fract_z
_atom_site_charge
La         La      0.27386   0.52442   0.75021   1.92988
La         La      0.97554   0.22604   0.74981   1.92994
La         La      0.72614   0.47558   0.24979   1.92988
La         La      0.02446   0.77395   0.25020   1.92997
H          H       0.18518   0.77399   0.52531   0.12195
H          H       0.30449   0.74844   0.64046   0.12372
H          H       0.43443   0.95319   0.04428   0.11918
H          H       0.44452   0.83175   0.91979   0.12458
H          H       0.12924   0.41023   0.50041   0.12720
H          H       0.99408   0.42033   0.38487   0.12209
H          H       0.09305   0.81059   0.88270   0.12581
H          H       0.30751   0.97536   0.10877   0.10851
H          H       0.16956   0.92284   0.04439   0.10646
H          H       0.11900   0.69714   0.76521   0.12979
H          H       0.84133   0.75212   0.52651   0.12215
H          H       0.83672   0.89337   0.64071   0.12373
H          H       0.10886   0.09097   0.04394   0.11933
H          H       0.97489   0.08797   0.91930   0.12483
H          H       0.87103   0.08925   0.49893   0.12696
H          H       0.89109   0.96364   0.38424   0.12164
H          H       0.28973   0.07245   0.88296   0.12591
H          H       0.29985   0.13314   0.10886   0.10948
H          H       0.37416   0.12182   0.04482   0.10761
H          H       0.14702   0.06848   0.76526   0.12863
H          H       0.72601   0.31502   0.97479   0.12203
H          H       0.75158   0.19554   0.85953   0.12357
H          H       0.54677   0.06555   0.45562   0.11913
H          H       0.66803   0.05536   0.57999   0.12474
H          H       0.08979   0.37053  -0.00053   0.12639
H          H       0.07974   0.50590   0.11512   0.12214
H          H       0.68939   0.40686   0.61731   0.12568
H          H       0.52492   0.19258   0.39121   0.10852
H          H       0.57735   0.33041   0.45577   0.10621
H          H       0.80271   0.38092   0.73471   0.12977
H          H       0.74804   0.65880   0.97353   0.12194
H          H       0.60683   0.66323   0.85934   0.12406
H          H       0.40893   0.39092   0.45606   0.11919
H          H       0.41197   0.52503   0.58084   0.12474
H          H       0.41065   0.62891   0.00112   0.12696
H          H       0.53626   0.60907   0.11581   0.12162
H          H       0.42746   0.21038   0.61708   0.12606
H          H       0.36695   0.20003   0.39110   0.10958
H          H       0.37816   0.12581   0.45513   0.10765
H          H       0.43148   0.35330   0.73484   0.12887
H          H       0.81483   0.22601   0.47469   0.12203
H          H       0.69551   0.25156   0.35954   0.12362
H          H       0.56557   0.04681   0.95572   0.11907
H          H       0.55548   0.16824   0.08021   0.12452
H          H       0.87077   0.58977   0.49959   0.12711
H          H       0.00592   0.57966   0.61513   0.12207
H          H       0.90695   0.18941   0.11730   0.12587
H          H       0.69249   0.02464   0.89123   0.10840
H          H       0.83044   0.07716   0.95561   0.10656
H          H       0.88101   0.30286   0.23479   0.12978
H          H       0.15867   0.24788   0.47349   0.12201
H          H       0.16329   0.10663   0.35930   0.12366
H          H       0.89114   0.90903   0.95606   0.11929
H          H       0.02512   0.91202   0.08071   0.12491
H          H       0.12897   0.91074   0.50107   0.12702
H          H       0.10891   0.03636   0.61576   0.12172
H          H       0.71027   0.92755   0.11704   0.12587
H          H       0.70015   0.86686   0.89114   0.10951
H          H       0.62584   0.87817   0.95518   0.10755
H          H       0.85298   0.93152   0.23474   0.12868
H          H       0.27399   0.68498   0.02522   0.12214
H          H       0.24842   0.80446   0.14047   0.12363
H          H       0.45323   0.93445   0.54438   0.11918
H          H       0.33197   0.94464   0.42001   0.12471
H          H       0.91021   0.62947   0.00053   0.12632
H          H       0.92027   0.49410   0.88488   0.12211
H          H       0.31061   0.59314   0.38269   0.12573
H          H       0.47508   0.80742   0.60879   0.10852
H          H       0.42265   0.66959   0.54423   0.10634
H          H       0.19730   0.61907   0.26529   0.12975
H          H       0.25196   0.34120   0.02648   0.12185
H          H       0.39317   0.33676   0.14066   0.12412
H          H       0.59108   0.60908   0.54394   0.11938
H          H       0.58803   0.47497   0.41916   0.12489
H          H       0.58935   0.37109  -0.00112   0.12707
H          H       0.46374   0.39093   0.88419   0.12151
H          H       0.57254   0.78962   0.38292   0.12593
H          H       0.63305   0.79997   0.60890   0.10978
H          H       0.62184   0.87419   0.54487   0.10758
H          H       0.56852   0.64670   0.26517   0.12879
C          C       0.08273   0.59904   0.44393  -0.04654
C          C       0.01123   0.60979   0.37479   0.59167
C          C       0.17069   0.69262   0.51779  -0.14085
C          C       0.23806   0.68197   0.58016  -0.05967
C          C       0.36270   0.89945   0.98317  -0.18147
C          C       0.37240   0.83646   0.91652  -0.05696
C          C       0.13603   0.48659   0.49983  -0.07300
C          C       0.06542   0.49487   0.43817  -0.13487
C          C       0.17338   0.82047   0.89379  -0.17317
C          C       0.26267   0.89367   0.97404   0.11859
C          C       0.25449   0.96460   0.04656  -0.19873
C          C       0.18457   0.75770   0.82792  -0.04621
C          C       0.86126   0.84392   0.44365  -0.04639
C          C       0.86384   0.76368   0.37483   0.59143
C          C       0.84771   0.82535   0.51807  -0.14115
C          C       0.84260   0.89879   0.58013  -0.06097
C          C       0.11995   0.08386   0.98297  -0.18008
C          C       0.04387   0.08018   0.91620  -0.05941
C          C       0.86375   0.01248   0.49876  -0.07406
C          C       0.87280   0.94219   0.43743  -0.13408
C          C       0.22042   0.07369   0.89390  -0.17263
C          C       0.21101   0.08062   0.97409   0.11802
C          C       0.29124   0.08200   0.04670  -0.20199
C          C       0.14362   0.07058   0.82788  -0.04723
C          C       0.90098   0.41735   0.05606  -0.04646
C          C       0.89015   0.48889   0.12516   0.59117
C          C       0.80738   0.32939   0.98224  -0.14106
C          C       0.81802   0.26193   0.91986  -0.05987
C          C       0.60049   0.13724   0.51676  -0.18062
C          C       0.66344   0.12751   0.58335  -0.05741
C          C       0.01344   0.36386   0.00013  -0.07130
C          C       0.00520   0.43458   0.06181  -0.13514
C          C       0.67947   0.32654   0.60620  -0.17294
C          C       0.60630   0.23724   0.52595   0.11726
C          C       0.53552   0.24548   0.45348  -0.19815
C          C       0.74220   0.31533   0.67201  -0.04580
C          C       0.65610   0.63875   0.05636  -0.04682
C          C       0.73637   0.63607   0.12504   0.59228
C          C       0.67473   0.65236   0.98196  -0.14063
C          C       0.60133   0.65741   0.91992  -0.06136
C          C       0.41607   0.37992   0.51705  -0.18027
C          C       0.41980   0.45608   0.58386  -0.05919
C          C       0.48751   0.63626   0.00129  -0.07422
C          C       0.55778   0.62728   0.06261  -0.13364
C          C       0.42622   0.27962   0.60611  -0.17286
C          C       0.41929   0.28891   0.52590   0.11819
C          C       0.41801   0.20867   0.45326  -0.20217
C          C       0.42937   0.35651   0.67218  -0.04703
C          C       0.91727   0.40096   0.55608  -0.04643
C          C       0.98878   0.39021   0.62521   0.59161
C          C       0.82931   0.30738   0.48222  -0.14079
C          C       0.76194   0.31803   0.41984  -0.05958
C          C       0.63730   0.10054   0.01683  -0.18143
C          C       0.62760   0.16354   0.08348  -0.05708
C          C       0.86397   0.51341   0.50017  -0.07309
C          C       0.93459   0.50513   0.56183  -0.13486
C          C       0.82662   0.17952   0.10621  -0.17313
C          C       0.73733   0.10633   0.02596   0.11866
C          C       0.74552   0.03540   0.95345  -0.19896
C          C       0.81543   0.24230   0.17209  -0.04606
C          C       0.13874   0.15608   0.55635  -0.04646
C          C       0.13617   0.23632   0.62517   0.59148
C          C       0.15230   0.17465   0.48193  -0.14119
C          C       0.15740   0.10121   0.41987  -0.06106
C          C       0.88005   0.91614   0.01704  -0.17999
C          C       0.95613   0.91982   0.08380  -0.05941
C          C       0.13625   0.98752   0.50124  -0.07383
C          C       0.12721   0.05781   0.56257  -0.13400
C          C       0.77958   0.92630   0.10610  -0.17275
C          C       0.78899   0.91938   0.02592   0.11789
C          C       0.70876   0.91800   0.95330  -0.20188
C          C       0.85638   0.92942   0.17213  -0.04715
C          C       0.09902   0.58265   0.94394  -0.04644
C          C       0.10985   0.51110   0.87485   0.59101
C          C       0.19263   0.67061   0.01776  -0.14108
C          C       0.18198   0.73807   0.08015  -0.05957
C          C       0.39952   0.86276   0.48324  -0.18055
C          C       0.33656   0.87249   0.41665  -0.05765
C          C       0.98656   0.63613  -0.00013  -0.07141
C          C       0.99480   0.56542   0.93819  -0.13512
C          C       0.32053   0.67346   0.39380  -0.17283
C          C       0.39370   0.76276   0.47405   0.11737
C          C       0.46448   0.75452   0.54653  -0.19822
C          C       0.25780   0.68466   0.32799  -0.04583
C          C       0.34390   0.36124   0.94364  -0.04691
C          C       0.26363   0.36392   0.87496   0.59237
C          C       0.32527   0.34763   0.01804  -0.14072
C          C       0.39867   0.34259   0.08008  -0.06127
C          C       0.58393   0.62008   0.48295  -0.18029
C          C       0.58020   0.54392   0.41614  -0.05908
C          C       0.51250   0.36374  -0.00129  -0.07422
C          C       0.44222   0.37272   0.93739  -0.13358
C          C       0.57378   0.72038   0.39389  -0.17302
C          C       0.58072   0.71109   0.47410   0.11814
C          C       0.58200   0.79133   0.54674  -0.20226
C          C       0.57063   0.64348   0.32782  -0.04708
N          N       0.22401   0.58047   0.56906   0.32216
N          N       0.28399   0.76734   0.83858   0.34369
N          N       0.84484   0.98853   0.56820   0.32358
N          N       0.05465   0.07144   0.83829   0.34516
N          N       0.91953   0.27589   0.93094   0.32203
N          N       0.73253   0.21595   0.66131   0.34342
N          N       0.51147   0.65510   0.93184   0.32423
N          N       0.42856   0.44542   0.66178   0.34481
N          N       0.77599   0.41953   0.43094   0.32223
N          N       0.71602   0.23266   0.16142   0.34363
N          N       0.15517   0.01146   0.43180   0.32348
N          N       0.94535   0.92855   0.16171   0.34510
N          N       0.08047   0.72411   0.06906   0.32183
N          N       0.26747   0.78405   0.33869   0.34353
N          N       0.48853   0.34490   0.06816   0.32406
N          N       0.57145   0.55457   0.33822   0.34477
O          O       0.29856   0.57361   0.62384  -0.58509
O          O       0.29520   0.71175   0.77361  -0.55444
O          O       0.04947   0.70530   0.37111  -0.64582
O          O       0.91689   0.52185   0.32383  -0.65249
O          O       0.82466   0.05046   0.62238  -0.58546
O          O       0.97874   0.06222   0.77333  -0.55405
O          O       0.82186   0.66454   0.37135  -0.64509
O          O       0.90756   0.80035   0.32384  -0.65254
O          O       0.92633   0.20127   0.87608  -0.58542
O          O       0.78804   0.20482   0.72630  -0.55401
O          O       0.79455   0.45060   0.12884  -0.64599
O          O       0.97804   0.58325   0.17608  -0.65179
O          O       0.44955   0.67517   0.87769  -0.58504
O          O       0.43782   0.52145   0.72678  -0.55420
O          O       0.83556   0.67814   0.12849  -0.64494
O          O       0.69974   0.59224   0.17598  -0.65317
O          O       0.70144   0.42639   0.37616  -0.58531
O          O       0.70480   0.28825   0.22639  -0.55435
O          O       0.95054   0.29470   0.62890  -0.64564
O          O       0.08311   0.47815   0.67617  -0.65254
O          O       0.17534   0.94954   0.37762  -0.58538
O          O       0.02127   0.93777   0.22668  -0.55387
O          O       0.17815   0.33546   0.62865  -0.64525
O          O       0.09245   0.19965   0.67616  -0.65239
O          O       0.07367   0.79873   0.12393  -0.58553
O          O       0.21196   0.79518   0.27370  -0.55426
O          O       0.20546   0.54940   0.87117  -0.64579
O          O       0.02197   0.41675   0.82392  -0.65186
O          O       0.55046   0.32483   0.12232  -0.58469
O          O       0.56218   0.47855   0.27322  -0.55417
O          O       0.16445   0.32186   0.87152  -0.64498
O          O       0.30026   0.40775   0.82402  -0.65324

