data_crystal

_audit_creation_method 'AiiDA-DDEC plugin'

_cell_length_a        15.91024
_cell_length_b        18.73135
_cell_length_c        18.73136

_cell_angle_alpha     112.36651
_cell_angle_beta     106.52899
_cell_angle_gamma     106.52853

_symmetry_space_group_name_Hall 'P 1'
_symmetry_space_group_name_H-M  'P 1'

loop_
_symmetry_equiv_pos_as_xyz
 'x,y,z'

loop_
_atom_site_label
_atom_site_type_symbol
_atom_site_fract_x
_atom_site_fract_y
_atom_site_fract_z
_atom_site_charge
Fe         Fe     -0.00003   0.50001   0.50001   0.63457
Fe         Fe      0.50003  -0.00003   0.49997   0.63390
Fe         Fe      0.50002   0.50000  -0.00003   0.63349
Fe         Fe     -0.00002   0.00003   0.49999   0.63334
Fe         Fe      0.50002   0.49999   0.50000   0.63452
Fe         Fe     -0.00004   0.50006   0.00008   0.63406
H          H       0.09039   0.73592   0.80199   0.12612
H          H       0.00389   0.81782   0.75967   0.11407
H          H       0.90791   0.76287   0.60197   0.11338
H          H       0.90267   0.62914   0.49374   0.08593
H          H       0.76088   0.38920   0.08639   0.11520
H          H       0.64228   0.41412   0.99005   0.08668
H          H       0.62172   0.58558   0.19599   0.09170
H          H       0.74037   0.56819   0.30047   0.11921
H          H       0.35399   0.06562   0.26440   0.12583
H          H       0.18498   0.94094   0.18191   0.11428
H          H       0.14386   0.83818   0.23647   0.11325
H          H       0.27275   0.86409   0.37043   0.08616
H          H       0.37228   0.69772   0.61059   0.11600
H          H       0.22843   0.57644   0.58582   0.08697
H          H       0.03538   0.61024   0.41424   0.09280
H          H       0.17182   0.73213   0.43162   0.11878
H          H       0.28860   0.19798   0.93356   0.12528
H          H       0.24450   0.24002   0.05788   0.11432
H          H       0.30597   0.39768   0.16072   0.11395
H          H       0.40882   0.50608   0.13531   0.08595
H          H       0.67435   0.91396   0.30272   0.11503
H          H       0.65172   0.01014   0.42369   0.08686
H          H       0.42540   0.80374   0.38928   0.09185
H          H       0.44007   0.69930   0.26776   0.11923
H          H       0.90961   0.26407   0.19801   0.12595
H          H       0.99610   0.18218   0.24033   0.11402
H          H       0.09208   0.23712   0.39803   0.11352
H          H       0.09733   0.37086   0.50626   0.08615
H          H       0.23912   0.61080   0.91361   0.11525
H          H       0.35773   0.58588   0.00996   0.08696
H          H       0.37828   0.41442   0.80400   0.09171
H          H       0.25962   0.43181   0.69953   0.11898
H          H       0.64601   0.93438   0.73560   0.12599
H          H       0.81501   0.05907   0.81810   0.11436
H          H       0.85614   0.16181   0.76353   0.11319
H          H       0.72726   0.13590   0.62956   0.08588
H          H       0.62772   0.30229   0.38941   0.11598
H          H       0.77157   0.42356   0.41419   0.08674
H          H       0.96462   0.38977   0.58577   0.09284
H          H       0.82818   0.26787   0.56839   0.11908
H          H       0.71140   0.80202   0.06644   0.12514
H          H       0.75551   0.75999   0.94212   0.11417
H          H       0.69405   0.60233   0.83928   0.11369
H          H       0.59119   0.49393   0.86468   0.08591
H          H       0.32565   0.08603   0.69728   0.11511
H          H       0.34828   0.98985   0.57631   0.08690
H          H       0.57461   0.19625   0.61072   0.09172
H          H       0.55993   0.30069   0.73223   0.11918
H          H       0.21140   0.06644   0.80202   0.12532
H          H       0.25549   0.94212   0.75998   0.11441
H          H       0.19403   0.83928   0.60232   0.11389
H          H       0.09117   0.86468   0.49392   0.08587
H          H       0.82565   0.69728   0.08604   0.11513
H          H       0.84828   0.57631   0.98987   0.08684
H          H       0.07460   0.61072   0.19627   0.09178
H          H       0.05993   0.73224   0.30070   0.11922
H          H       0.40960   0.19800   0.26407   0.12606
H          H       0.49610   0.24032   0.18217   0.11406
H          H       0.59208   0.39802   0.23711   0.11334
H          H       0.59733   0.50625   0.37085   0.08597
H          H       0.73911   0.91361   0.61080   0.11534
H          H       0.85772   0.00996   0.58588   0.08667
H          H       0.87827   0.80401   0.41442   0.09161
H          H       0.75963   0.69953   0.43181   0.11915
H          H       0.14601   0.73560   0.93438   0.12563
H          H       0.31502   0.81810   0.05907   0.11416
H          H       0.35614   0.76353   0.16182   0.11315
H          H       0.22725   0.62956   0.13591   0.08610
H          H       0.12772   0.38941   0.30229   0.11614
H          H       0.27157   0.41418   0.42356   0.08696
H          H       0.46462   0.58576   0.38976   0.09268
H          H       0.32817   0.56839   0.26787   0.11879
H          H       0.78859   0.93356   0.19798   0.12520
H          H       0.74449   0.05788   0.24001   0.11427
H          H       0.80596   0.16072   0.39767   0.11380
H          H       0.90881   0.13532   0.50607   0.08589
H          H       0.17435   0.30272   0.91396   0.11517
H          H       0.15172   0.42369   0.01014   0.08692
H          H       0.92540   0.38928   0.80375   0.09170
H          H       0.94007   0.26777   0.69931   0.11909
H          H       0.59039   0.80198   0.73592   0.12592
H          H       0.50389   0.75966   0.81781   0.11415
H          H       0.40791   0.60196   0.76287   0.11359
H          H       0.40267   0.49373   0.62913   0.08623
H          H       0.26088   0.08638   0.38920   0.11519
H          H       0.14226   0.99004   0.41412   0.08671
H          H       0.12173   0.19601   0.58558   0.09178
H          H       0.24038   0.30047   0.56819   0.11913
H          H       0.85399   0.26440   0.06562   0.12583
H          H       0.68499   0.18190   0.94094   0.11427
H          H       0.64387   0.23647   0.83819   0.11314
H          H       0.77276   0.37044   0.86410   0.08582
H          H       0.87228   0.61059   0.69772   0.11601
H          H       0.72844   0.58581   0.57645   0.08666
H          H       0.53538   0.41423   0.61023   0.09276
H          H       0.67183   0.43161   0.73214   0.11912
C          C       0.90571   0.40649   0.31168   0.21209
C          C       0.17722   0.54028   0.73966   0.23685
C          C       0.95569   0.35689   0.32930   0.16418
C          C       0.04953   0.71639   0.73501  -0.15646
C          C       0.00080   0.76059   0.71096  -0.04545
C          C       0.94709   0.73022   0.62336  -0.13855
C          C       0.94389   0.65619   0.56282   0.08699
C          C       0.24112   0.52448   0.79842   0.06970
C          C       0.26848   0.56687   0.88723  -0.16419
C          C       0.33424   0.55291   0.94079   0.08271
C          C       0.65442   0.54297   0.17417   0.07782
C          C       0.72008   0.53306   0.23203  -0.17558
C          C       0.49945   0.90531   0.59312   0.21295
C          C       0.63701   0.19944   0.46018   0.23446
C          C       0.59931   0.97276   0.64299   0.15854
C          C       0.33247   0.01810   0.28367  -0.15451
C          C       0.23928   0.94963   0.23919  -0.04655
C          C       0.21589   0.89239   0.26937  -0.13785
C          C       0.28691   0.90608   0.34349   0.08701
C          C       0.71673   0.27395   0.47585   0.06988
C          C       0.70134   0.32007   0.43334  -0.16453
C          C       0.78118   0.38752   0.44721   0.08132
C          C       0.11095   0.63114   0.45684   0.07535
C          C       0.18663   0.69885   0.46666  -0.17347
C          C       0.59425   0.68823   0.09513   0.21409
C          C       0.43742   0.26034   0.80040   0.23642
C          C       0.62650   0.67069   0.02786   0.15938
C          C       0.31460   0.26492   0.98108  -0.15273
C          C       0.28997   0.28882   0.04938  -0.04649
C          C       0.32376   0.37639   0.10665  -0.13957
C          C       0.38098   0.43702   0.09321   0.08699
C          C       0.44269   0.20153   0.72602   0.06880
C          C       0.38142   0.11259   0.67978  -0.16370
C          C       0.39385   0.05910   0.61243   0.08183
C          C       0.47998   0.82569   0.36857   0.07858
C          C       0.48803   0.76785   0.30099  -0.17491
C          C       0.09429   0.59351   0.68833   0.21202
C          C       0.82277   0.45972   0.26034   0.23683
C          C       0.04431   0.64311   0.67071   0.16433
C          C       0.95047   0.28361   0.26499  -0.15655
C          C      -0.00080   0.23941   0.28904  -0.04533
C          C       0.05291   0.26978   0.37664  -0.13858
C          C       0.05611   0.34381   0.43719   0.08700
C          C       0.75888   0.47551   0.20159   0.06961
C          C       0.73152   0.43313   0.11277  -0.16394
C          C       0.66577   0.44709   0.05922   0.08254
C          C       0.34558   0.45703   0.82583   0.07755
C          C       0.27991   0.46694   0.76797  -0.17552
C          C       0.50055   0.09468   0.40688   0.21198
C          C       0.36299   0.80056   0.53982   0.23455
C          C       0.40069   0.02724   0.35701   0.16208
C          C       0.66752   0.98190   0.71633  -0.15317
C          C       0.76072   0.05037   0.76082  -0.04632
C          C       0.78410   0.10761   0.73063  -0.13790
C          C       0.71310   0.09392   0.65651   0.08698
C          C       0.28327   0.72605   0.52415   0.06973
C          C       0.29866   0.67994   0.56667  -0.16447
C          C       0.21882   0.61248   0.55280   0.08138
C          C       0.88905   0.36886   0.54317   0.07552
C          C       0.81337   0.30115   0.53334  -0.17356
C          C       0.40576   0.31176   0.90486   0.21400
C          C       0.56259   0.73965   0.19960   0.23610
C          C       0.37351   0.32931   0.97214   0.15957
C          C       0.68541   0.73508   0.01891  -0.15241
C          C       0.71004   0.71119   0.95062  -0.04677
C          C       0.67625   0.62362   0.89335  -0.13971
C          C       0.61903   0.56298   0.90678   0.08709
C          C       0.55731   0.79846   0.27398   0.06874
C          C       0.61858   0.88740   0.32021  -0.16373
C          C       0.60616   0.94089   0.38757   0.08159
C          C       0.52002   0.17430   0.63143   0.07826
C          C       0.51198   0.23214   0.69900  -0.17500
C          C       0.90575   0.90487   0.31176   0.21391
C          C       0.06258   0.19961   0.73966   0.23628
C          C       0.87350   0.97214   0.32930   0.15953
C          C       0.18540   0.01891   0.73508  -0.15271
C          C       0.21002   0.95062   0.71118  -0.04648
C          C       0.17624   0.89334   0.62361  -0.13977
C          C       0.11901   0.90678   0.56298   0.08702
C          C       0.05731   0.27398   0.79847   0.06897
C          C       0.11858   0.32022   0.88741  -0.16385
C          C       0.10615   0.38757   0.94090   0.08191
C          C       0.02002   0.63143   0.17431   0.07844
C          C       0.01197   0.69901   0.23215  -0.17492
C          C       0.59429   0.68832   0.59350   0.21216
C          C       0.32278   0.26034   0.45972   0.23674
C          C       0.54431   0.67069   0.64311   0.16414
C          C       0.45047   0.26498   0.28360  -0.15671
C          C       0.49920   0.28903   0.23940  -0.04532
C          C       0.55291   0.37663   0.26977  -0.13861
C          C       0.55611   0.43717   0.34380   0.08717
C          C       0.25888   0.20158   0.47551   0.06970
C          C       0.23152   0.11277   0.43313  -0.16412
C          C       0.16576   0.05922   0.44709   0.08277
C          C       0.84558   0.82583   0.45703   0.07775
C          C       0.77992   0.76797   0.46694  -0.17548
C          C       0.00055   0.40688   0.09469   0.21199
C          C       0.86300   0.53982   0.80057   0.23433
C          C       0.90069   0.35701   0.02724   0.16225
C          C       0.16753   0.71633   0.98191  -0.15427
C          C       0.26072   0.76081   0.05037  -0.04644
C          C       0.28410   0.73063   0.10761  -0.13796
C          C       0.21309   0.65651   0.09392   0.08680
C          C       0.78328   0.52415   0.72605   0.06997
C          C       0.79866   0.56666   0.67994  -0.16473
C          C       0.71883   0.55279   0.61248   0.08154
C          C       0.38905   0.54316   0.36886   0.07540
C          C       0.31337   0.53334   0.30115  -0.17350
C          C       0.09424   0.09514   0.68823   0.21397
C          C       0.93741   0.80040   0.26034   0.23608
C          C       0.12649   0.02786   0.67069   0.15957
C          C       0.81458   0.98108   0.26491  -0.15261
C          C       0.78996   0.04938   0.28881  -0.04675
C          C       0.82375   0.10665   0.37638  -0.13975
C          C       0.88097   0.09322   0.43701   0.08722
C          C       0.94269   0.72602   0.20153   0.06880
C          C       0.88142   0.67979   0.11259  -0.16363
C          C       0.89384   0.61243   0.05911   0.08179
C          C       0.97998   0.36857   0.82571   0.07814
C          C       0.98803   0.30100   0.76787  -0.17500
C          C       0.40571   0.31167   0.40649   0.21206
C          C       0.67723   0.73965   0.54028   0.23681
C          C       0.45569   0.32929   0.35688   0.16454
C          C       0.54952   0.73500   0.71638  -0.15673
C          C       0.50079   0.71095   0.76058  -0.04522
C          C       0.44709   0.62335   0.73021  -0.13851
C          C       0.44390   0.56280   0.65618   0.08698
C          C       0.74112   0.79841   0.52449   0.06973
C          C       0.76848   0.88723   0.56687  -0.16402
C          C       0.83423   0.94078   0.55291   0.08271
C          C       0.15442   0.17418   0.54297   0.07778
C          C       0.22009   0.23203   0.53306  -0.17553
C          C      -0.00055   0.59312   0.90532   0.21203
C          C       0.13701   0.46018   0.19944   0.23445
C          C       0.09931   0.64299   0.97277   0.16227
C          C       0.83248   0.28367   0.01810  -0.15432
C          C       0.73928   0.23919   0.94963  -0.04607
C          C       0.71590   0.26937   0.89240  -0.13816
C          C       0.78691   0.34349   0.90609   0.08682
C          C       0.21673   0.47585   0.27395   0.06983
C          C       0.20135   0.43333   0.32007  -0.16456
C          C       0.28119   0.44720   0.38752   0.08141
C          C       0.61096   0.45683   0.63114   0.07582
C          C       0.68663   0.46666   0.69885  -0.17372
N          N       0.08816   0.52584   0.62047  -0.22349
N          N       0.14150   0.49125   0.65284  -0.27939
N          N       0.85014   0.39510   0.23542  -0.40983
N          N       0.00864   0.38687   0.41474  -0.26188
N          N       0.37449   0.50010   0.91180  -0.24485
N          N       0.56236   0.09489   0.47470  -0.22117
N          N       0.65054   0.16199   0.50933  -0.27950
N          N       0.45529   0.84057   0.60455  -0.40866
N          N       0.62233   0.02820   0.61319  -0.26076
N          N       0.87456   0.41149   0.49999  -0.24498
N          N       0.46727   0.37960   0.90488  -0.22410
N          N       0.48833   0.34716   0.83799  -0.27907
N          N       0.61480   0.76454   0.15985  -0.40926
N          N       0.59405   0.58530   0.97232  -0.25923
N          N       0.46311   0.08822   0.58864  -0.24557
N          N       0.91184   0.47416   0.37953  -0.22342
N          N       0.85850   0.50875   0.34716  -0.27933
N          N       0.14985   0.60490   0.76459  -0.40961
N          N       0.99135   0.61313   0.58527  -0.26205
N          N       0.62551   0.49990   0.08819  -0.24522
N          N       0.43765   0.90510   0.52529  -0.22143
N          N       0.34946   0.83801   0.49066  -0.27972
N          N       0.54472   0.15942   0.39545  -0.40927
N          N       0.37767   0.97179   0.38680  -0.26176
N          N       0.12544   0.58851   0.50001  -0.24479
N          N       0.53273   0.62039   0.09510  -0.22442
N          N       0.51167   0.65283   0.16200  -0.27833
N          N       0.38521   0.23546   0.84015  -0.40905
N          N       0.40596   0.41470   0.02767  -0.25959
N          N       0.53690   0.91176   0.41135  -0.24543
N          N       0.03273   0.09512   0.62040  -0.22425
N          N       0.01167   0.16202   0.65284  -0.27888
N          N       0.88520   0.84015   0.23546  -0.40917
N          N       0.90595   0.02768   0.41470  -0.25942
N          N       0.03690   0.41136   0.91178  -0.24551
N          N       0.41184   0.37952   0.47415  -0.22355
N          N       0.35851   0.34715   0.50875  -0.27911
N          N       0.64986   0.76458   0.60490  -0.40968
N          N       0.49136   0.58525   0.61313  -0.26199
N          N       0.12551   0.08820   0.49989  -0.24509
N          N       0.93765   0.52530   0.90512  -0.22104
N          N       0.84946   0.49067   0.83802  -0.27938
N          N       0.04471   0.39545   0.15943  -0.40882
N          N       0.87767   0.38680   0.97181  -0.26149
N          N       0.62545   0.50000   0.58851  -0.24532
N          N       0.96726   0.90489   0.37960  -0.22415
N          N       0.98833   0.83799   0.34716  -0.27853
N          N       0.11479   0.15985   0.76454  -0.40893
N          N       0.09404   0.97232   0.58529  -0.25955
N          N       0.96310   0.58865   0.08824  -0.24565
N          N       0.58817   0.62047   0.52584  -0.22339
N          N       0.64151   0.65284   0.49125  -0.27954
N          N       0.35014   0.23541   0.39510  -0.40977
N          N       0.50865   0.41473   0.38686  -0.26216
N          N       0.87449   0.91181   0.50010  -0.24542
N          N       0.06235   0.47471   0.09490  -0.22123
N          N       0.15054   0.50934   0.16200  -0.27988
N          N       0.95529   0.60455   0.84058  -0.40943
N          N       0.12232   0.61320   0.02821  -0.26141
N          N       0.37457   0.49998   0.41149  -0.24488

