data_crystal

_audit_creation_method 'AiiDA-DDEC plugin'

_cell_length_a        18.70038
_cell_length_b        18.69865
_cell_length_c        28.21778

_cell_angle_alpha     70.53083
_cell_angle_beta     70.54196
_cell_angle_gamma     59.92122

_symmetry_space_group_name_Hall 'P 1'
_symmetry_space_group_name_H-M  'P 1'

loop_
_symmetry_equiv_pos_as_xyz
 'x,y,z'

loop_
_atom_site_label
_atom_site_type_symbol
_atom_site_fract_x
_atom_site_fract_y
_atom_site_fract_z
_atom_site_charge
Cu         Cu      0.21897   0.77572   0.21175   0.92081
Cu         Cu      0.79361   0.21900   0.21174   0.91985
Cu         Cu      0.77556   0.79365   0.21178   0.91972
Cu         Cu      0.70631   0.72417   0.28836   0.92027
Cu         Cu      0.72418   0.28099   0.28831   0.91923
Cu         Cu      0.28096   0.70623   0.28833   0.91984
Cu         Cu      0.78104   0.22428   0.78825   0.92076
Cu         Cu      0.20640   0.78099   0.78826   0.91972
Cu         Cu      0.22445   0.20635   0.78822   0.91974
Cu         Cu      0.29370   0.27583   0.71164   0.92023
Cu         Cu      0.27583   0.71901   0.71169   0.91940
Cu         Cu      0.71905   0.29376   0.71167   0.91969
H          H       0.59573   0.91147   0.11483   0.13400
H          H       0.37243   0.90000   0.11223   0.13410
H          H       0.47764   0.78368   0.24827   0.14231
H          H       0.43849   0.05885   0.11858   0.11010
H          H       0.52312   0.79482   0.06473   0.10791
H          H       0.41320   0.20802   0.09607   0.10619
H          H       0.56619   0.71919   0.99585   0.10130
H          H       0.37779   0.59574   0.11492   0.13346
H          H       0.61556   0.37212   0.11217   0.13406
H          H       0.49044   0.47764   0.24811   0.14194
H          H       0.38375   0.43834   0.11868   0.10998
H          H       0.61716   0.52304   0.06455   0.10868
H          H       0.28246   0.41310   0.09626   0.10631
H          H       0.71873   0.56624   0.99562   0.10226
H          H       0.91144   0.37817   0.11496   0.13389
H          H       0.90014   0.61567   0.11208   0.13361
H          H       0.78374   0.49044   0.24824   0.14169
H          H       0.05899   0.38401   0.11863   0.11029
H          H       0.79495   0.61736   0.06466   0.10790
H          H       0.20821   0.28248   0.09618   0.10439
H          H       0.71908   0.71890   0.99574   0.10041
H          H       0.12185   0.58849   0.38507   0.13364
H          H       0.88438   0.59989   0.38788   0.13440
H          H       0.00966   0.71626   0.25173   0.14275
H          H       0.11595   0.44105   0.38137   0.11083
H          H       0.88261   0.70510   0.43533   0.10826
H          H       0.21750   0.29182   0.40384   0.10579
H          H       0.78109   0.78095   0.50424   0.10079
H          H       0.58848   0.90428   0.38518   0.13346
H          H       0.59998   0.12759   0.38778   0.13454
H          H       0.71625   0.02240   0.25175   0.14258
H          H       0.44114   0.06152   0.38142   0.11023
H          H       0.70514   0.97689   0.43529   0.10872
H          H       0.29200   0.08679   0.40391   0.10352
H          H       0.78077   0.93382   0.50417   0.10135
H          H       0.90429   0.12219   0.38505   0.13398
H          H       0.12791   0.88442   0.38781   0.13512
H          H       0.02234   0.00965   0.25186   0.14223
H          H       0.06167   0.11626   0.38132   0.11002
H          H       0.97697   0.88283   0.43546   0.10855
H          H       0.08690   0.21757   0.40373   0.10499
H          H       0.93376   0.78125   0.50439   0.09902
H          H       0.40428   0.08852   0.88517   0.13381
H          H       0.62758   0.09999   0.88777   0.13426
H          H       0.52237   0.21632   0.75172   0.14230
H          H       0.56152   0.94115   0.88142   0.11012
H          H       0.47689   0.20518   0.93527   0.10788
H          H       0.58681   0.79198   0.90393   0.10639
H          H       0.43382   0.28080   0.00415   0.10133
H          H       0.62222   0.40426   0.88508   0.13377
H          H       0.38445   0.62788   0.88783   0.13365
H          H       0.50957   0.52235   0.75189   0.14180
H          H       0.61626   0.56166   0.88132   0.10996
H          H       0.38285   0.47695   0.93545   0.10858
H          H       0.71755   0.58690   0.90374   0.10652
H          H       0.28128   0.43376   0.00438   0.10195
H          H       0.08857   0.62182   0.88503   0.13383
H          H       0.09987   0.38433   0.88792   0.13354
H          H       0.21628   0.50956   0.75176   0.14180
H          H       0.94102   0.61598   0.88137   0.11034
H          H       0.20506   0.38263   0.93534   0.10810
H          H       0.79180   0.71752   0.90382   0.10426
H          H       0.28093   0.28110   0.00425   0.09866
H          H       0.87816   0.41150   0.61493   0.13341
H          H       0.11563   0.40010   0.61212   0.13465
H          H       0.99035   0.28374   0.74827   0.14280
H          H       0.88406   0.55894   0.61863   0.11086
H          H       0.11740   0.29489   0.56467   0.10819
H          H       0.78251   0.70817   0.59616   0.10566
H          H       0.21892   0.21905   0.49576   0.10113
H          H       0.41153   0.09572   0.61482   0.13356
H          H       0.40003   0.87241   0.61222   0.13464
H          H       0.28376   0.97759   0.74825   0.14241
H          H       0.55887   0.93848   0.61858   0.11018
H          H       0.29488   0.02310   0.56471   0.10854
H          H       0.70801   0.91320   0.59609   0.10379
H          H       0.21924   0.06617   0.49583   0.10099
H          H       0.09572   0.87780   0.61495   0.13427
H          H       0.87210   0.11558   0.61219   0.13470
H          H       0.97767   0.99034   0.74814   0.14226
H          H       0.93834   0.88374   0.61868   0.11003
H          H       0.02304   0.11716   0.56454   0.10862
H          H       0.91311   0.78243   0.59627   0.10480
H          H       0.06625   0.21874   0.49561   0.09911
C          C       0.61312   0.81870   0.21029   0.58508
C          C       0.48366   0.91289   0.10720   0.07346
C          C       0.35351   0.80628   0.20790   0.58394
C          C       0.54494   0.89264   0.13376  -0.12348
C          C       0.51432   0.91391   0.01349   0.02824
C          C       0.47526   0.04350   0.03984   0.02868
C          C       0.42006   0.88615   0.13221  -0.12467
C          C       0.41788   0.83969   0.18290  -0.03300
C          C       0.49008   0.95806   0.05256  -0.03425
C          C       0.47899   0.82023   0.20920  -0.09494
C          C       0.44805   0.09042   0.07859  -0.13930
C          C       0.54304   0.84620   0.18437  -0.03455
C          C       0.53047   0.82724   0.02480  -0.13794
C          C       0.43375   0.17353   0.06598  -0.09126
C          C       0.55475   0.78497   0.98635  -0.08354
C          C       0.35783   0.61314   0.21022   0.58445
C          C       0.49618   0.48341   0.10720   0.07463
C          C       0.63248   0.35344   0.20768   0.58598
C          C       0.42856   0.54482   0.13378  -0.12379
C          C       0.55827   0.51427   0.01341   0.02864
C          C       0.44133   0.47519   0.03991   0.02891
C          C       0.56167   0.41981   0.13214  -0.12431
C          C       0.55963   0.41776   0.18276  -0.03454
C          C       0.49924   0.48992   0.05257  -0.03422
C          C       0.49160   0.47893   0.20909  -0.09377
C          C       0.38275   0.44794   0.07870  -0.14009
C          C       0.42633   0.54297   0.18432  -0.03425
C          C       0.61743   0.53043   0.02464  -0.13827
C          C       0.32659   0.43366   0.06614  -0.09170
C          C       0.67395   0.55479   0.98616  -0.08479
C          C       0.81859   0.35808   0.21038   0.58522
C          C       0.91302   0.49649   0.10721   0.07664
C          C       0.80647   0.63237   0.20785   0.58411
C          C       0.89269   0.42887   0.13382  -0.12540
C          C       0.91395   0.55838   0.01344   0.02850
C          C       0.04357   0.44140   0.03988   0.02795
C          C       0.88628   0.56186   0.13214  -0.12552
C          C       0.83982   0.55971   0.18283  -0.03314
C          C       0.95816   0.49946   0.05256  -0.03445
C          C       0.82031   0.49170   0.20918  -0.09531
C          C       0.09055   0.38286   0.07865  -0.13962
C          C       0.84623   0.42654   0.18441  -0.03196
C          C       0.82726   0.61760   0.02472  -0.13782
C          C       0.17367   0.32659   0.06606  -0.08980
C          C       0.78489   0.67407   0.98625  -0.08304
C          C       0.14213   0.68113   0.28965   0.58335
C          C       0.00352   0.58700   0.39279   0.07630
C          C       0.86752   0.69368   0.29219   0.58069
C          C       0.07117   0.60727   0.36619  -0.12479
C          C       0.94162   0.58607   0.48656   0.02877
C          C       0.05859   0.45644   0.46012   0.02906
C          C       0.93818   0.61377   0.36784  -0.12679
C          C       0.94031   0.66025   0.31714  -0.03247
C          C       0.00053   0.54186   0.44744  -0.03324
C          C       0.00836   0.67969   0.29080  -0.09665
C          C       0.11711   0.40948   0.42135  -0.14251
C          C       0.07353   0.65369   0.31559  -0.03159
C          C       0.88239   0.67277   0.47527  -0.13840
C          C       0.17339   0.32635   0.43395  -0.08979
C          C       0.82593   0.71513   0.51373  -0.08379
C          C       0.68114   0.88704   0.28966   0.58407
C          C       0.58706   0.01637   0.39280   0.07505
C          C       0.69373   0.14645   0.29216   0.58495
C          C       0.60731   0.95509   0.36625  -0.12436
C          C       0.58608   0.98569   0.48652   0.02717
C          C       0.45650   0.02474   0.46016   0.02865
C          C       0.61382   0.07997   0.36780  -0.12643
C          C       0.66029   0.08213   0.31712  -0.03247
C          C       0.54192   0.00993   0.44744  -0.03228
C          C       0.67971   0.02105   0.29082  -0.09689
C          C       0.40958   0.05194   0.42141  -0.14096
C          C       0.65372   0.95701   0.31565  -0.03139
C          C       0.67272   0.96954   0.47522  -0.13967
C          C       0.32649   0.06623   0.43401  -0.08751
C          C       0.71500   0.94526   0.51367  -0.08302
C          C       0.88695   0.14226   0.28972   0.58315
C          C       0.01663   0.00379   0.39278   0.07627
C          C       0.14663   0.86749   0.29230   0.58239
C          C       0.95521   0.07142   0.36620  -0.12468
C          C       0.98575   0.94173   0.48659   0.02975
C          C       0.02484   0.05866   0.46008   0.02865
C          C       0.08022   0.93831   0.36784  -0.12778
C          C       0.08229   0.94036   0.31721  -0.03220
C          C       0.01012   0.00073   0.44742  -0.03524
C          C       0.02109   0.00842   0.29088  -0.09562
C          C       0.05207   0.11726   0.42130  -0.13872
C          C       0.95706   0.07367   0.31566  -0.03243
C          C       0.96958   0.88256   0.47537  -0.14041
C          C       0.06633   0.17343   0.43385  -0.09141
C          C       0.94522   0.82603   0.51385  -0.07971
C          C       0.38689   0.18129   0.78971   0.58548
C          C       0.51635   0.08710   0.89280   0.07362
C          C       0.64650   0.19371   0.79210   0.58384
C          C       0.45507   0.10736   0.86624  -0.12388
C          C       0.48569   0.08609   0.98651   0.02841
C          C       0.52475   0.95649   0.96016   0.02871
C          C       0.57996   0.11384   0.86779  -0.12433
C          C       0.58213   0.16030   0.81710  -0.03270
C          C       0.50993   0.04194   0.94744  -0.03438
C          C       0.52102   0.17977   0.79080  -0.09516
C          C       0.55196   0.90957   0.92141  -0.13913
C          C       0.45697   0.15380   0.81563  -0.03466
C          C       0.46954   0.17275   0.97520  -0.13799
C          C       0.56626   0.82647   0.93402  -0.09147
C          C       0.44526   0.21503   0.01365  -0.08347
C          C       0.64218   0.38685   0.78978   0.58427
C          C       0.50383   0.51658   0.89280   0.07468
C          C       0.36753   0.64656   0.79232   0.58639
C          C       0.57145   0.45518   0.86622  -0.12385
C          C       0.44174   0.48573   0.98659   0.02870
C          C       0.55868   0.52481   0.96009   0.02903
C          C       0.43834   0.58018   0.86786  -0.12419
C          C       0.44038   0.58223   0.81724  -0.03468
C          C       0.50077   0.51008   0.94743  -0.03408
C          C       0.50841   0.52106   0.79091  -0.09385
C          C       0.61726   0.55206   0.92130  -0.14042
C          C       0.57368   0.45703   0.81568  -0.03394
C          C       0.38258   0.46957   0.97536  -0.13839
C          C       0.67342   0.56633   0.93386  -0.09141
C          C       0.32606   0.44521   0.01384  -0.08485
C          C       0.18142   0.64192   0.78962   0.58505
C          C       0.08699   0.50351   0.89279   0.07651
C          C       0.19354   0.36762   0.79215   0.58406
C          C       0.10732   0.57113   0.86618  -0.12518
C          C       0.08606   0.44162   0.98656   0.02879
C          C       0.95644   0.55860   0.96012   0.02807
C          C       0.11374   0.43814   0.86786  -0.12565
C          C       0.16019   0.44029   0.81717  -0.03312
C          C       0.04185   0.50054   0.94743  -0.03450
C          C       0.17970   0.50830   0.79082  -0.09510
C          C       0.90946   0.61714   0.92135  -0.13941
C          C       0.15378   0.57345   0.81559  -0.03219
C          C       0.17275   0.38240   0.97528  -0.13792
C          C       0.82634   0.67340   0.93393  -0.09013
C          C       0.21512   0.32593   0.01375  -0.08092
C          C       0.85788   0.31886   0.71035   0.58359
C          C       0.99649   0.41299   0.60721   0.07602
C          C       0.13249   0.30632   0.70781   0.58043
C          C       0.92884   0.39272   0.63381  -0.12496
C          C       0.05839   0.41392   0.51344   0.02883
C          C       0.94142   0.54355   0.53988   0.02916
C          C       0.06183   0.38623   0.63216  -0.12647
C          C       0.05970   0.33974   0.68285  -0.03235
C          C      -0.00052   0.45813   0.55256  -0.03322
C          C       0.99165   0.32030   0.70920  -0.09680
C          C       0.88290   0.59052   0.57865  -0.14243
C          C       0.92648   0.34630   0.68441  -0.03161
C          C       0.11762   0.32723   0.52473  -0.13824
C          C       0.82662   0.67365   0.56605  -0.09002
C          C       0.17408   0.28487   0.48626  -0.08380
C          C       0.31887   0.11295   0.71034   0.58405
C          C       0.41295   0.98362   0.60720   0.07511
C          C       0.30628   0.85355   0.70784   0.58478
C          C       0.39270   0.04490   0.63375  -0.12432
C          C       0.41393   0.01430   0.51348   0.02749
C          C       0.54351   0.97526   0.53984   0.02888
C          C       0.38619   0.92003   0.63220  -0.12634
C          C       0.33972   0.91786   0.68288  -0.03256
C          C       0.45809   0.99006   0.55256  -0.03252
C          C       0.32030   0.97894   0.70918  -0.09698
C          C       0.59043   0.94805   0.57859  -0.14119
C          C       0.34629   0.04298   0.68435  -0.03135
C          C       0.32729   0.03045   0.52478  -0.14003
C          C       0.67352   0.93376   0.56599  -0.08728
C          C       0.28501   0.05473   0.48633  -0.08292
C          C       0.11306   0.85774   0.71028   0.58312
C          C       0.98338   0.99620   0.60722   0.07614
C          C       0.85338   0.13251   0.70770   0.58297
C          C       0.04480   0.92857   0.63380  -0.12451
C          C       0.01426   0.05827   0.51341   0.02973
C          C       0.97518   0.94133   0.53991   0.02873
C          C       0.91979   0.06168   0.63216  -0.12776
C          C       0.91772   0.05963   0.68279  -0.03247
C          C       0.98989  -0.00074   0.55258  -0.03528
C          C       0.97892   0.99157   0.70912  -0.09556
C          C       0.94794   0.88274   0.57870  -0.13892
C          C       0.04295   0.92632   0.68434  -0.03235
C          C       0.03043   0.11744   0.52463  -0.14032
C          C       0.93368   0.82656   0.56615  -0.09123
C          C       0.05479   0.17397   0.48615  -0.07974
O          O       0.30207   0.82197   0.18099  -0.53923
O          O       0.61067   0.77143   0.25513  -0.53651
O          O       0.35600   0.76307   0.25382  -0.54023
O          O       0.67122   0.84243   0.18524  -0.54268
O          O       0.69500   0.30160   0.18087  -0.53813
O          O       0.36242   0.61043   0.25513  -0.53588
O          O       0.62753   0.35629   0.25341  -0.54221
O          O       0.30140   0.67162   0.18505  -0.54275
O          O       0.82208   0.69517   0.18091  -0.53942
O          O       0.77173   0.36264   0.25533  -0.53538
O          O       0.76343   0.62696   0.25381  -0.54016
O          O       0.84175   0.30171   0.18522  -0.54386
O          O       0.80486   0.67781   0.31913  -0.53659
O          O       0.13776   0.72784   0.24465  -0.53580
O          O       0.87268   0.73705   0.24630  -0.53974
O          O       0.19850   0.65793   0.31482  -0.54262
O          O       0.67767   0.19810   0.31902  -0.53934
O          O       0.72800   0.88985   0.24472  -0.53497
O          O       0.73731   0.14375   0.24633  -0.54087
O          O       0.65775   0.82872   0.31472  -0.54432
O          O       0.19830   0.80478   0.31916  -0.53731
O          O       0.88988   0.13790   0.24472  -0.53557
O          O       0.14394   0.87261   0.24649  -0.54083
O          O       0.82837   0.19859   0.31493  -0.54209
O          O       0.69795   0.17802   0.81901  -0.53884
O          O       0.38934   0.22857   0.74487  -0.53635
O          O       0.64402   0.23693   0.74618  -0.54046
O          O       0.32879   0.15757   0.81476  -0.54300
O          O       0.30501   0.69840   0.81913  -0.53853
O          O       0.63759   0.38957   0.74487  -0.53614
O          O       0.37248   0.64371   0.74659  -0.54208
O          O       0.69861   0.32838   0.81494  -0.54233
O          O       0.17793   0.30482   0.81909  -0.53969
O          O       0.22828   0.63735   0.74467  -0.53514
O          O       0.23658   0.37304   0.74619  -0.53995
O          O       0.15826   0.69829   0.81478  -0.54401
O          O       0.19515   0.32219   0.68087  -0.53629
O          O       0.86225   0.27216   0.75535  -0.53551
O          O       0.12733   0.26295   0.75370  -0.53995
O          O       0.80151   0.34207   0.68518  -0.54300
O          O       0.32234   0.80190   0.68098  -0.53908
O          O       0.27201   0.11015   0.75528  -0.53513
O          O       0.26270   0.85625   0.75367  -0.54084
O          O       0.34226   0.17127   0.68528  -0.54401
O          O       0.80171   0.19521   0.68084  -0.53775
O          O       0.11013   0.86210   0.75528  -0.53574
O          O       0.85607   0.12739   0.75351  -0.54081
O          O       0.17164   0.80141   0.68507  -0.54205

