data_crystal

_audit_creation_method 'AiiDA-DDEC plugin'

_cell_length_a        15.90072
_cell_length_b        17.46247
_cell_length_c        17.62768

_cell_angle_alpha     91.06363
_cell_angle_beta     74.61782
_cell_angle_gamma     63.15247

_symmetry_space_group_name_Hall 'P 1'
_symmetry_space_group_name_H-M  'P 1'

loop_
_symmetry_equiv_pos_as_xyz
 'x,y,z'

loop_
_atom_site_label
_atom_site_type_symbol
_atom_site_fract_x
_atom_site_fract_y
_atom_site_fract_z
_atom_site_charge
Cd         Cd      0.68499   0.61532   0.43946   0.94692
Cd         Cd      0.76257   0.72018   0.26126   1.09012
Cd         Cd      0.84475   0.82011   0.07858   0.96047
Cd         Cd      0.31501   0.38468   0.56055   0.94689
Cd         Cd      0.23744   0.27982   0.73875   1.09016
Cd         Cd      0.15525   0.17989   0.92143   0.96049
H          H       0.55520   0.52861   0.52113   0.09750
H          H       0.41756   0.55182   0.64256   0.14232
H          H       0.40849   0.79463   0.71520   0.12382
H          H       0.54686   0.76053   0.58935   0.11369
H          H       0.29642   0.75934   0.79961   0.10215
H          H       0.28084   0.59902   0.74363   0.12644
H          H       0.16368   0.57212   0.85092   0.13298
H          H       0.00626   0.63577   0.96476   0.10640
H          H       0.99683   0.87642   0.98168   0.11807
H          H       0.15002   0.82534   0.86743   0.12537
H          H       0.94197   0.68491   0.34100   0.11465
H          H       0.03606   0.76780   0.32164   0.11173
H          H       0.79281   0.97831   0.49941   0.10375
H          H       0.69904   0.89459   0.51807   0.12099
H          H       0.11907   0.81333   0.38328   0.11007
H          H       0.12415   0.05756   0.38931   0.10637
H          H       0.84984   0.05251   0.42082   0.10891
H          H       0.23954   0.78234   0.44093   0.10804
H          H       0.42071   0.70742   0.42116   0.11426
H          H       0.45103   0.90405   0.29180   0.12540
H          H       0.27133   0.97640   0.30617   0.11426
H          H       0.02417   0.18431   0.46687   0.10032
H          H       0.93530   0.34502   0.47635   0.12437
H          H       0.72896   0.32474   0.37412   0.08995
H          H       0.81942   0.16398   0.35902   0.10786
H          H       0.82425   0.55133   0.99162   0.11515
H          H       0.73539   0.46435   0.00352   0.09667
H          H       0.49460   0.65973   0.19513   0.11379
H          H       0.58533   0.74502   0.18336   0.11144
H          H       0.67910   0.38166   0.08036   0.09852
H          H       0.40382   0.37981   0.10606   0.11118
H          H       0.41011   0.62274   0.13089   0.11236
H          H       0.73783   0.25442   0.00812   0.10095
H          H       0.82578   0.09483   0.00724   0.11908
H          H       0.56164   0.10769   0.16456   0.12422
H          H       0.47272   0.26798   0.16858   0.11024
H          H       0.26070   0.45077   0.18954   0.11381
H          H       0.08048   0.52393   0.20907   0.12701
H          H       0.09661   0.74475   0.11806   0.11675
H          H       0.27873   0.67007   0.09404   0.10630
H          H       0.44480   0.47139   0.47887   0.09753
H          H       0.58244   0.44819   0.35744   0.14243
H          H       0.59151   0.20537   0.28481   0.12374
H          H       0.45314   0.23947   0.41065   0.11361
H          H       0.70359   0.24066   0.20039   0.10204
H          H       0.71916   0.40098   0.25637   0.12657
H          H       0.83633   0.42788   0.14908   0.13308
H          H       0.99374   0.36423   0.03524   0.10646
H          H       0.00317   0.12358   0.01832   0.11800
H          H       0.84998   0.17466   0.13257   0.12530
H          H       0.05803   0.31509   0.65901   0.11468
H          H       0.96394   0.23220   0.67836   0.11172
H          H       0.20719   0.02169   0.50059   0.10369
H          H       0.30096   0.10542   0.48193   0.12099
H          H       0.88093   0.18667   0.61672   0.11012
H          H       0.87586   0.94244   0.61069   0.10627
H          H       0.15016   0.94749   0.57918   0.10905
H          H       0.76046   0.21766   0.55907   0.10808
H          H       0.57929   0.29258   0.57885   0.11420
H          H       0.54897   0.09595   0.70821   0.12532
H          H       0.72868   0.02360   0.69383   0.11430
H          H       0.97583   0.81569   0.53314   0.10013
H          H       0.06470   0.65498   0.52365   0.12422
H          H       0.27104   0.67526   0.62588   0.09000
H          H       0.18058   0.83603   0.64098   0.10798
H          H       0.17575   0.44867   0.00839   0.11509
H          H       0.26462   0.53565   0.99648   0.09670
H          H       0.50540   0.34027   0.80487   0.11380
H          H       0.41468   0.25498   0.81664   0.11138
H          H       0.32090   0.61835   0.91964   0.09840
H          H       0.59618   0.62019   0.89394   0.11134
H          H       0.58989   0.37726   0.86911   0.11228
H          H       0.26218   0.74558   0.99188   0.10095
H          H       0.17422   0.90517   0.99276   0.11902
H          H       0.43836   0.89231   0.83544   0.12430
H          H       0.52728   0.73202   0.83143   0.11027
H          H       0.73930   0.54923   0.81047   0.11382
H          H       0.91952   0.47607   0.79093   0.12708
H          H       0.90339   0.25525   0.88194   0.11677
H          H       0.72127   0.32993   0.90596   0.10620
C          C       0.51993   0.58647   0.56616   0.08231
C          C       0.44428   0.59951   0.63458  -0.16631
C          C       0.40104   0.67605   0.69037   0.14804
C          C       0.43916   0.73481   0.67379  -0.17286
C          C       0.51517   0.71696   0.60409   0.08096
C          C       0.31666   0.70035   0.76100  -0.11789
C          C       0.26110   0.65923   0.78034  -0.10542
C          C       0.17173   0.69308   0.84874   0.14474
C          C       0.12919   0.63995   0.87800  -0.17184
C          C       0.04241   0.67441   0.94199   0.09008
C          C       0.03717   0.80937   0.95138   0.07459
C          C       0.12291   0.77986   0.88761  -0.17158
C          C       0.75921   0.73397   0.44060   0.56635
C          C       0.81433   0.78483   0.43004  -0.05597
C          C       0.90973   0.74946   0.37504  -0.09947
C          C       0.96268   0.79577   0.36510  -0.12323
C          C       0.92135   0.87902   0.40943   0.07591
C          C       0.82515   0.91443   0.46394  -0.13887
C          C       0.77252   0.86773   0.47492  -0.09038
C          C       0.97833   0.92739   0.40133   0.06838
C          C       0.08104   0.88376   0.38835  -0.17695
C          C       0.13456   0.92995   0.38452   0.06771
C          C       0.08373   0.02092   0.39201  -0.17705
C          C       0.98139   0.06602   0.40430   0.07633
C          C       0.92959   0.01829   0.40948  -0.17785
C          C       0.24196   0.88487   0.37449   0.07419
C          C       0.28561   0.80842   0.40676  -0.14016
C          C       0.38692   0.76681   0.39683  -0.09016
C          C       0.44700   0.80132   0.35567  -0.04914
C          C       0.40395   0.87813   0.32436  -0.08864
C          C       0.30316   0.91866   0.33311  -0.14310
C          C       0.55609   0.75541   0.34225   0.57060
C          C       0.92858   0.16174   0.41209   0.07185
C          C       0.96055   0.21412   0.44497  -0.13899
C          C       0.91085   0.30430   0.45112  -0.08747
C          C       0.82737   0.34446   0.42477  -0.03819
C          C       0.79418   0.29292   0.39339  -0.10584
C          C       0.84428   0.20293   0.38642  -0.14240
C          C       0.77520   0.44058   0.42838   0.54385
C          C       0.76281   0.70688   0.08018   0.56383
C          C       0.71079   0.65349   0.08727  -0.05267
C          C       0.75267   0.57407   0.03657  -0.09752
C          C       0.70232   0.52554   0.04342  -0.14016
C          C       0.60750   0.55637   0.09897   0.07416
C          C       0.56639   0.63576   0.14997  -0.12854
C          C       0.61761   0.68338   0.14439  -0.10047
C          C       0.55131   0.50756   0.10228   0.07367
C          C       0.59978   0.41634   0.08979  -0.17908
C          C       0.54695   0.36943   0.09416   0.06612
C          C       0.44418   0.41572   0.10819  -0.17663
C          C       0.39309   0.50712   0.12249   0.07008
C          C       0.44792   0.55204   0.11959  -0.17322
C          C       0.59814   0.27357   0.08810   0.07039
C          C       0.69829   0.22316   0.04265  -0.14545
C          C       0.74830   0.13383   0.04204  -0.10170
C          C       0.69953   0.09173   0.08643  -0.03141
C          C       0.59909   0.14085   0.13050  -0.09666
C          C       0.54942   0.23037   0.13149  -0.14050
C          C       0.75453   0.99583   0.08581   0.54633
C          C       0.28425   0.55401   0.13908   0.07799
C          C       0.22598   0.51434   0.17201  -0.13132
C          C       0.12449   0.55538   0.18363  -0.08409
C          C       0.07690   0.63880   0.16412  -0.04523
C          C       0.13373   0.67992   0.13270  -0.09328
C          C       0.23564   0.63805   0.12029  -0.14735
C          C       0.96694   0.68419   0.18091   0.56402
C          C       0.48007   0.41353   0.43384   0.08249
C          C       0.55572   0.40049   0.36542  -0.16627
C          C       0.59896   0.32395   0.30963   0.14791
C          C       0.56084   0.26519   0.32621  -0.17291
C          C       0.48483   0.28304   0.39591   0.08090
C          C       0.68334   0.29965   0.23900  -0.11778
C          C       0.73890   0.34077   0.21966  -0.10547
C          C       0.82827   0.30692   0.15126   0.14464
C          C       0.87081   0.36005   0.12200  -0.17181
C          C       0.95759   0.32559   0.05801   0.09019
C          C       0.96284   0.19063   0.04862   0.07460
C          C       0.87709   0.22014   0.11240  -0.17157
C          C       0.24079   0.26603   0.55940   0.56615
C          C       0.18567   0.21517   0.56996  -0.05593
C          C       0.09027   0.25055   0.62496  -0.09944
C          C       0.03732   0.20423   0.63490  -0.12319
C          C       0.07866   0.12098   0.59057   0.07578
C          C       0.17485   0.08558   0.53606  -0.13895
C          C       0.22748   0.13227   0.52509  -0.09026
C          C       0.02167   0.07261   0.59868   0.06857
C          C       0.91896   0.11624   0.61165  -0.17702
C          C       0.86544   0.07005   0.61548   0.06773
C          C       0.91627   0.97908   0.60800  -0.17717
C          C       0.01861   0.93398   0.59570   0.07646
C          C       0.07042   0.98171   0.59052  -0.17794
C          C       0.75804   0.11513   0.62551   0.07415
C          C       0.71439   0.19158   0.59324  -0.14008
C          C       0.61309   0.23319   0.60317  -0.09012
C          C       0.55300   0.19868   0.64433  -0.04916
C          C       0.59605   0.12187   0.67564  -0.08866
C          C       0.69684   0.08134   0.66689  -0.14308
C          C       0.44391   0.24460   0.65775   0.57055
C          C       0.07142   0.83826   0.58791   0.07178
C          C       0.03945   0.78588   0.55503  -0.13886
C          C       0.08915   0.69570   0.54888  -0.08756
C          C       0.17263   0.65554   0.57523  -0.03819
C          C       0.20582   0.70708   0.60662  -0.10575
C          C       0.15572   0.79707   0.61358  -0.14236
C          C       0.22480   0.55942   0.57162   0.54376
C          C       0.23719   0.29312   0.91982   0.56395
C          C       0.28922   0.34651   0.91273  -0.05276
C          C       0.24734   0.42593   0.96344  -0.09734
C          C       0.29769   0.47447   0.95658  -0.14017
C          C       0.39250   0.44363   0.90103   0.07423
C          C       0.43362   0.36424   0.85003  -0.12838
C          C       0.38240   0.31662   0.85562  -0.10067
C          C       0.44869   0.49244   0.89772   0.07357
C          C       0.40022   0.58366   0.91021  -0.17905
C          C       0.45305   0.63057   0.90584   0.06606
C          C       0.55582   0.58428   0.89181  -0.17655
C          C       0.60691   0.49288   0.87751   0.07004
C          C       0.55209   0.44796   0.88041  -0.17317
C          C       0.40186   0.72643   0.91190   0.07038
C          C       0.30171   0.77684   0.95736  -0.14547
C          C       0.25171   0.86617   0.95796  -0.10180
C          C       0.30047   0.90827   0.91358  -0.03130
C          C       0.40092   0.85915   0.86950  -0.09658
C          C       0.45058   0.76963   0.86851  -0.14052
C          C       0.24548   0.00418   0.91419   0.54612
C          C       0.71575   0.44600   0.86092   0.07797
C          C       0.77402   0.48566   0.82799  -0.13138
C          C       0.87552   0.44462   0.81637  -0.08403
C          C       0.92310   0.36120   0.83588  -0.04518
C          C       0.86627   0.32008   0.86730  -0.09327
C          C       0.76437   0.36195   0.87971  -0.14740
C          C       0.03306   0.31582   0.81909   0.56404
N          N       0.55485   0.64411   0.55066  -0.24512
N          N       0.99642   0.75789   0.97822  -0.24993
N          N       0.44516   0.35590   0.44934  -0.24516
N          N       0.00358   0.24211   0.02178  -0.24998
O          O       0.78462   0.67456   0.37990  -0.60864
O          O       0.69306   0.74551   0.50390  -0.52604
O          O       0.60226   0.79929   0.31809  -0.55824
O          O       0.59688   0.67628   0.35193  -0.59589
O          O       0.70204   0.47473   0.40000  -0.58346
O          O       0.80513   0.48645   0.45938  -0.54868
O          O       0.73978   0.76204   0.14284  -0.60164
O          O       0.82504   0.70093   0.01574  -0.53093
O          O       0.84847   0.95626   0.05447  -0.57880
O          O       0.70567   0.95641   0.11620  -0.54793
O          O       0.92278   0.63845   0.20397  -0.56170
O          O       0.92274   0.76444   0.17529  -0.59508
O          O       0.21538   0.32545   0.62010  -0.60850
O          O       0.30694   0.25449   0.49610  -0.52599
O          O       0.39775   0.20071   0.68191  -0.55836
O          O       0.40312   0.32372   0.64807  -0.59575
O          O       0.29796   0.52527   0.60000  -0.58314
O          O       0.19487   0.51355   0.54062  -0.54895
O          O       0.26022   0.23796   0.85716  -0.60188
O          O       0.17496   0.29907   0.98426  -0.53086
O          O       0.15154   0.04375   0.94554  -0.57882
O          O       0.29434   0.04359   0.88380  -0.54772
O          O       0.07722   0.36156   0.79603  -0.56158
O          O       0.07726   0.23557   0.82471  -0.59519

