data_crystal

_audit_creation_method 'AiiDA-DDEC plugin'

_cell_length_a        16.44879
_cell_length_b        23.46562
_cell_length_c        23.46556

_cell_angle_alpha     120.00061
_cell_angle_beta     89.99593
_cell_angle_gamma     90.00407

_symmetry_space_group_name_Hall 'P 1'
_symmetry_space_group_name_H-M  'P 1'

loop_
_symmetry_equiv_pos_as_xyz
 'x,y,z'

loop_
_atom_site_label
_atom_site_type_symbol
_atom_site_fract_x
_atom_site_fract_y
_atom_site_fract_z
_atom_site_charge
Mg         Mg      0.28912   0.26991   0.23645   1.54632
Mg         Mg      0.26964   0.43110   0.36627   1.55682
Mg         Mg      0.28810   0.30329   0.39327   1.55514
Mg         Mg      0.28917   0.96653   0.73003   1.54611
Mg         Mg      0.26974   0.93516   0.56890   1.55650
Mg         Mg      0.28812   0.08998   0.69678   1.55498
Mg         Mg      0.28916   0.76346   0.03343   1.54646
Mg         Mg      0.26967   0.63362   0.06472   1.55691
Mg         Mg      0.28811   0.60671   0.90993   1.55470
Mg         Mg      0.78916   0.96657   0.23654   1.54636
Mg         Mg      0.76967   0.93528   0.36638   1.55690
Mg         Mg      0.78811   0.09007   0.39329   1.55472
Mg         Mg      0.78912   0.76355   0.73009   1.54628
Mg         Mg      0.76964   0.63374   0.56891   1.55679
Mg         Mg      0.78810   0.60674   0.69671   1.55516
Mg         Mg      0.78917   0.26997   0.03347   1.54629
Mg         Mg      0.76974   0.43110   0.06484   1.55656
Mg         Mg      0.78812   0.30322   0.91002   1.55489
H          H       0.93500   0.48863   0.24043   0.12537
H          H       0.05712   0.47376   0.29637   0.12348
H          H       0.09240   0.27967   0.13192   0.12574
H          H       0.97153   0.29402   0.07524   0.11827
H          H       0.49312   0.20643   0.38365   0.12666
H          H       0.61413   0.13635   0.37088   0.11400
H          H       0.62821   0.07856   0.16587   0.12492
H          H       0.50670   0.14978   0.17956   0.12431
H          H       0.46032   0.39801   0.54863   0.12291
H          H       0.58165   0.45447   0.62103   0.12217
H          H       0.59139   0.58756   0.54518   0.11192
H          H       0.46912   0.53220   0.47493   0.12919
H          H       0.93486   0.75181   0.51149   0.12494
H          H       0.05715   0.82244   0.52618   0.12355
H          H       0.09246   0.85213   0.72031   0.12520
H          H       0.97140   0.78128   0.70602   0.11834
H          H       0.49325   0.17726   0.79356   0.12682
H          H       0.61420   0.23454   0.86369   0.11706
H          H       0.62820   0.08728   0.92139   0.12491
H          H       0.50669   0.02973   0.85010   0.12409
H          H       0.46028   0.15061   0.60204   0.12287
H          H       0.58158   0.16660   0.54560   0.12201
H          H       0.59137   0.95767   0.41246   0.11198
H          H       0.46916   0.94271   0.46781   0.12634
H          H       0.93491   0.75970   0.24817   0.12531
H          H       0.05714   0.70377   0.17747   0.12351
H          H       0.09241   0.86824   0.14784   0.12520
H          H       0.97142   0.92480   0.21875   0.11806
H          H       0.49320   0.61635   0.82273   0.12532
H          H       0.61419   0.62922   0.76549   0.11691
H          H       0.62812   0.83423   0.91281   0.12500
H          H       0.50660   0.82042   0.97030   0.12475
H          H       0.46049   0.45122   0.84921   0.12257
H          H       0.58189   0.37898   0.83348   0.12218
H          H       0.59136   0.45499   0.04243   0.11218
H          H       0.46902   0.52509   0.05716   0.12917
H          H       0.43491   0.75183   0.24030   0.12529
H          H       0.55714   0.82253   0.29623   0.12354
H          H       0.59241   0.85216   0.13176   0.12518
H          H       0.47143   0.78125   0.07520   0.11806
H          H       0.99320   0.17727   0.38365   0.12557
H          H       0.11419   0.23451   0.37078   0.11710
H          H       0.12812   0.08719   0.16578   0.12486
H          H       0.00660   0.02971   0.17958   0.12455
H          H       0.96049   0.15079   0.54879   0.12274
H          H       0.08189   0.16653   0.62103   0.12247
H          H       0.09136   0.95758   0.54501   0.11210
H          H       0.96901   0.94284   0.47491   0.12917
H          H       0.43500   0.75958   0.51138   0.12523
H          H       0.55712   0.70364   0.52625   0.12327
H          H       0.59240   0.86809   0.72033   0.12583
H          H       0.47153   0.92476   0.70598   0.11836
H          H       0.99312   0.61635   0.79358   0.12527
H          H       0.11413   0.62913   0.86366   0.11701
H          H       0.12821   0.83414   0.92144   0.12503
H          H       0.00670   0.82044   0.85022   0.12440
H          H       0.96032   0.45137   0.60200   0.12298
H          H       0.08165   0.37898   0.54554   0.12221
H          H       0.09139   0.45482   0.41245   0.11188
H          H       0.96912   0.52507   0.46780   0.12921
H          H       0.43486   0.48852   0.24820   0.12496
H          H       0.55715   0.47382   0.17756   0.12360
H          H       0.59246   0.27969   0.14787   0.12507
H          H       0.47140   0.29398   0.21872   0.11831
H          H       0.99324   0.20644   0.82275   0.12553
H          H       0.11420   0.13632   0.76547   0.11693
H          H       0.12820   0.07861   0.91273   0.12488
H          H       0.00670   0.14991   0.97028   0.12425
H          H       0.96028   0.39796   0.84940   0.12255
H          H       0.08158   0.45440   0.83341   0.12186
H          H       0.09138   0.58754   0.04233   0.11203
H          H       0.96916   0.53219   0.05729   0.12633
C          C       0.94620   0.39257   0.15480  -0.03774
C          C       0.96987   0.44317   0.21748  -0.09184
C          C       0.03734   0.43492   0.24828  -0.09948
C          C       0.08242   0.37627   0.21683  -0.02820
C          C       0.05738   0.32506   0.15510  -0.09097
C          C       0.98960   0.33301   0.12398  -0.10498
C          C       0.87772   0.40557   0.12179   0.60198
C          C       0.15797   0.36947   0.24883   0.64833
C          C       0.49243   0.18129   0.28218  -0.03222
C          C       0.52358   0.17854   0.33645  -0.09329
C          C       0.59105   0.13964   0.32917  -0.09614
C          C       0.62775   0.10283   0.26713  -0.03170
C          C       0.59842   0.10732   0.21326  -0.09460
C          C       0.53128   0.14655   0.22085  -0.09989
C          C       0.41639   0.21939   0.28957   0.64455
C          C       0.69333   0.05503   0.25605   0.60741
C          C       0.45811   0.46241   0.50815  -0.02215
C          C       0.48951   0.43968   0.54881  -0.09574
C          C       0.55670   0.47058   0.58850  -0.09361
C          C       0.59420   0.52327   0.58635  -0.03817
C          C       0.56311   0.54571   0.54532  -0.10065
C          C       0.49493   0.51567   0.50684  -0.09737
C          C       0.38605   0.42968   0.46485   0.64393
C          C       0.66644   0.55530   0.62761   0.62110
C          C       0.94614   0.76225   0.60750  -0.03863
C          C       0.96982   0.77432   0.55689  -0.09111
C          C       0.03736   0.81330   0.56509  -0.10029
C          C       0.08249   0.84050   0.62373  -0.02800
C          C       0.05740   0.83001   0.67495  -0.08964
C          C       0.98955   0.79100   0.66704  -0.10506
C          C       0.87764   0.71624   0.59449   0.60336
C          C       0.15807   0.87931   0.63052   0.64808
C          C       0.49247   0.10091   0.81868  -0.03186
C          C       0.52364   0.15793   0.82145  -0.09410
C          C       0.59109   0.18955   0.86039  -0.09803
C          C       0.62775   0.16430   0.89719  -0.03154
C          C       0.59841   0.10593   0.89266  -0.09481
C          C       0.53128   0.07428   0.85339  -0.09973
C          C       0.41638   0.07030   0.78062   0.64411
C          C       0.69334   0.20101   0.94499   0.60751
C          C       0.45809   0.04573   0.53762  -0.02133
C          C       0.48947   0.10913   0.56036  -0.09596
C          C       0.55664   0.11795   0.52946  -0.09334
C          C       0.59418   0.06314   0.47676  -0.03786
C          C       0.56309  -0.00035   0.45431  -0.10064
C          C       0.49493   0.99117   0.48435  -0.09548
C          C       0.38604   0.03517   0.57036   0.64309
C          C       0.66644   0.07243   0.44478   0.62048
C          C       0.94615   0.84529   0.23777  -0.03791
C          C       0.96984   0.78262   0.22567  -0.09165
C          C       0.03736   0.75183   0.18666  -0.09992
C          C       0.08249   0.78326   0.15945  -0.02776
C          C       0.05740   0.84499   0.16998  -0.08999
C          C       0.98957   0.87609   0.20902  -0.10545
C          C       0.87763   0.87828   0.28379   0.60295
C          C       0.15805   0.75120   0.12061   0.64821
C          C       0.49243   0.71781   0.89910  -0.03237
C          C       0.52361   0.66358   0.84208  -0.09209
C          C       0.59107   0.67091   0.81048  -0.09857
C          C       0.62773   0.73298   0.83576  -0.03120
C          C       0.59836   0.78681   0.89412  -0.09458
C          C       0.53121   0.77918   0.92575  -0.10012
C          C       0.41637   0.71033   0.92972   0.64390
C          C       0.69333   0.74406   0.79906   0.60576
C          C       0.45808   0.49178   0.95413  -0.02148
C          C       0.48960   0.45111   0.89077  -0.09540
C          C       0.55683   0.41150   0.88208  -0.09409
C          C       0.59428   0.41369   0.93695  -0.03820
C          C       0.56311   0.45476   0.00039  -0.10049
C          C       0.49488   0.49316   0.00875  -0.09762
C          C       0.38601   0.53506   0.96468   0.64351
C          C       0.66650   0.37242   0.92774   0.62104
C          C       0.44615   0.76223   0.15471  -0.03796
C          C       0.46985   0.77433   0.21738  -0.09162
C          C       0.53736   0.81335   0.24817  -0.09988
C          C       0.58249   0.84056   0.21674  -0.02775
C          C       0.55740   0.83002   0.15501  -0.08997
C          C       0.48957   0.79098   0.12391  -0.10543
C          C       0.37764   0.71621   0.12172   0.60299
C          C       0.65805   0.87939   0.24880   0.64819
C          C       0.99243   0.10091   0.28219  -0.03227
C          C       0.02361   0.15793   0.33643  -0.09230
C          C       0.09108   0.18952   0.32909  -0.09846
C          C       0.12773   0.16424   0.26703  -0.03127
C          C       0.09836   0.10588   0.21319  -0.09456
C          C       0.03121   0.07425   0.22083  -0.10025
C          C       0.91637   0.07029   0.28967   0.64389
C          C       0.19334   0.20094   0.25594   0.60591
C          C       0.95808   0.04588   0.50823  -0.02153
C          C       0.98959   0.10923   0.54889  -0.09536
C          C       0.05683   0.11793   0.58850  -0.09409
C          C       0.09428   0.06305   0.58631  -0.03802
C          C       0.06311  -0.00039   0.54525  -0.10065
C          C       0.99488   0.99126   0.50684  -0.09791
C          C       0.88601   0.03532   0.46495   0.64324
C          C       0.16650   0.07227   0.62759   0.62078
C          C       0.44621   0.84520   0.60743  -0.03781
C          C       0.46987   0.78252   0.55683  -0.09183
C          C       0.53734   0.75172   0.56508  -0.09931
C          C       0.58242   0.78317   0.62373  -0.02833
C          C       0.55738   0.84490   0.67495  -0.09082
C          C       0.48960   0.87603   0.66700  -0.10492
C          C       0.37772   0.87821   0.59444   0.60203
C          C       0.65796   0.75117   0.63054   0.64838
C          C       0.99243   0.71782   0.81872  -0.03230
C          C       0.02358   0.66355   0.82146  -0.09228
C          C       0.09105   0.67083   0.86037  -0.09840
C          C       0.12775   0.73288   0.89718  -0.03164
C          C       0.09843   0.78674   0.89269  -0.09465
C          C       0.03128   0.77916   0.85346  -0.09989
C          C       0.91639   0.71044   0.78062   0.64454
C          C       0.19333   0.74395   0.94497   0.60718
C          C       0.95811   0.49185   0.53759  -0.02202
C          C       0.98951   0.45119   0.56032  -0.09568
C          C       0.05670   0.41151   0.52943  -0.09381
C          C       0.09420   0.41365   0.47673  -0.03800
C          C       0.06311   0.45468   0.45429  -0.10081
C          C       0.99493   0.49316   0.48433  -0.09739
C          C       0.88605   0.53515   0.57032   0.64384
C          C       0.16644   0.37239   0.44470   0.62116
C          C       0.44614   0.39251   0.23775  -0.03859
C          C       0.46982   0.44311   0.22568  -0.09094
C          C       0.53736   0.43491   0.18670  -0.10030
C          C       0.58249   0.37628   0.15950  -0.02790
C          C       0.55740   0.32505   0.17000  -0.08973
C          C       0.48955   0.33297   0.20900  -0.10514
C          C       0.37764   0.40551   0.28376   0.60321
C          C       0.65806   0.36949   0.12069   0.64813
C          C       0.99246   0.18133   0.89909  -0.03179
C          C       0.02364   0.17855   0.84208  -0.09275
C          C       0.09109   0.13962   0.81046  -0.09816
C          C       0.12775   0.10281   0.83571  -0.03148
C          C       0.09841   0.10735   0.89408  -0.09486
C          C       0.03128   0.14662   0.92573  -0.09961
C          C       0.91638   0.21939   0.92971   0.64355
C          C       0.19334   0.05502   0.79900   0.60742
C          C       0.95809   0.46238   0.95428  -0.02132
C          C       0.98947   0.43965   0.89087  -0.09607
C          C       0.05664   0.47054   0.88206  -0.09340
C          C       0.09418   0.52324   0.93686  -0.03794
C          C       0.06310   0.54569   0.00035  -0.10028
C          C       0.99493   0.51565   0.00883  -0.09527
C          C       0.88604   0.42965   0.96484   0.64368
C          C       0.16644   0.55523   0.92758   0.62031
O          O       0.84783   0.35809   0.06623  -0.83791
O          O       0.84884   0.46292   0.14562  -0.60206
O          O       0.19952   0.31686   0.21656  -0.70440
O          O       0.17521   0.41734   0.30608  -0.70661
O          O       0.38086   0.24494   0.34544  -0.71519
O          O       0.39205   0.22340   0.23996  -0.69203
O          O       0.71817   0.01487   0.19854  -0.61355
O          O       0.72273   0.05125   0.30586  -0.82112
O          O       0.36527   0.37350   0.45605  -0.70296
O          O       0.35198   0.46053   0.43925  -0.70707
O          O       0.68688   0.54537   0.67434  -0.63585
O          O       0.70993   0.59483   0.61655  -0.80718
O          O       0.84768   0.70813   0.64195  -0.83891
O          O       0.84879   0.68272   0.53712  -0.60235
O          O       0.19966   0.89966   0.68311  -0.70428
O          O       0.17529   0.88869   0.58264  -0.70650
O          O       0.38083   0.10077   0.75524  -0.71464
O          O       0.39201   0.01663   0.77649  -0.69214
O          O       0.71815   0.18370   0.98519  -0.61365
O          O       0.72276   0.25457   0.94872  -0.82122
O          O       0.36527   0.08253   0.62655  -0.70231
O          O       0.35198   0.97872   0.53947  -0.70690
O          O       0.68687   0.12908   0.45468  -0.63518
O          O       0.70999   0.02186   0.40530  -0.80681
O          O       0.84769   0.93385   0.29192  -0.83895
O          O       0.84879   0.85442   0.31730  -0.60196
O          O       0.19971   0.78347   0.10033  -0.70453
O          O       0.17522   0.69391   0.11117  -0.70650
O          O       0.38086   0.65446   0.89928  -0.71464
O          O       0.39199   0.75987   0.98337  -0.69168
O          O       0.71815   0.80158   0.81638  -0.61293
O          O       0.72276   0.69423   0.74550  -0.82059
O          O       0.36526   0.54391   0.91732  -0.70310
O          O       0.35192   0.56062   0.02111  -0.70692
O          O       0.68695   0.32569   0.87107  -0.63618
O          O       0.70993   0.38346   0.97834  -0.80666
O          O       0.34769   0.70808   0.06615  -0.83897
O          O       0.34879   0.68270   0.14558  -0.60201
O          O       0.69971   0.89967   0.21653  -0.70457
O          O       0.67522   0.88883   0.30609  -0.70646
O          O       0.88085   0.10072   0.34555  -0.71435
O          O       0.89199   0.01663   0.24014  -0.69200
O          O       0.21815   0.18363   0.19843  -0.61319
O          O       0.22276   0.25450   0.30578  -0.82044
O          O       0.86526   0.08269   0.45610  -0.70276
O          O       0.85192   0.97889   0.43938  -0.70712
O          O       0.18695   0.12893   0.67431  -0.63562
O          O       0.20993   0.02166   0.61655  -0.80695
O          O       0.34783   0.93378   0.64191  -0.83778
O          O       0.34884   0.85438   0.53708  -0.60223
O          O       0.69952   0.78344   0.68314  -0.70423
O          O       0.67521   0.69392   0.58266  -0.70682
O          O       0.88085   0.65456   0.75507  -0.71522
O          O       0.89205   0.76004   0.77660  -0.69186
O          O       0.21817   0.80146   0.98514  -0.61320
O          O       0.22273   0.69414   0.94876  -0.82135
O          O       0.86527   0.54395   0.62650  -0.70281
O          O       0.85198   0.56076   0.53948  -0.70715
O          O       0.18688   0.32567   0.45463  -0.63599
O          O       0.20993   0.38345   0.40517  -0.80723
O          O       0.34768   0.35806   0.29187  -0.83899
O          O       0.34879   0.46288   0.31728  -0.60207
O          O       0.69966   0.31690   0.10035  -0.70442
O          O       0.67529   0.41736   0.11131  -0.70646
O          O       0.88083   0.24477   0.89923  -0.71435
O          O       0.89201   0.22352   0.98337  -0.69170
O          O       0.21815   0.01482   0.81631  -0.61367
O          O       0.22276   0.05128   0.74544  -0.82131
O          O       0.86527   0.37345   0.91748  -0.70303
O          O       0.85198   0.46053   0.02128  -0.70672
O          O       0.18687   0.54532   0.87092  -0.63583
O          O       0.20999   0.59471   0.97814  -0.80637

