data_crystal

_audit_creation_method 'AiiDA-DDEC plugin'

_cell_length_a        16.25899
_cell_length_b        16.78012
_cell_length_c        20.75765

_cell_angle_alpha     90.00249
_cell_angle_beta     90.00090
_cell_angle_gamma     100.71162

_symmetry_space_group_name_Hall 'P 1'
_symmetry_space_group_name_H-M  'P 1'

loop_
_symmetry_equiv_pos_as_xyz
 'x,y,z'

loop_
_atom_site_label
_atom_site_type_symbol
_atom_site_fract_x
_atom_site_fract_y
_atom_site_fract_z
_atom_site_charge
Zn         Zn      0.51906   0.74744   0.82294   1.05776
Zn         Zn      0.40670   0.57345   0.84899   0.92702
Zn         Zn      0.59922   0.92366   0.85842   0.91695
Zn         Zn      0.98095   0.75257   0.32294   1.05797
Zn         Zn      0.09328   0.92653   0.34901   0.92706
Zn         Zn      0.90078   0.57623   0.35839   0.91741
Zn         Zn      0.48095   0.25257   0.17706   1.05779
Zn         Zn      0.59330   0.42655   0.15101   0.92704
Zn         Zn      0.40078   0.07635   0.14158   0.91696
Zn         Zn      0.01905   0.24743   0.67706   1.05801
Zn         Zn      0.90672   0.07347   0.65099   0.92707
Zn         Zn      0.09922   0.42377   0.64161   0.91749
H          H       0.81756   0.68040   0.94456   0.13424
H          H       0.84075   0.93418   0.77583   0.11766
H          H       0.98111   0.90927   0.74172   0.12668
H          H       0.72749   0.43346   0.00506   0.12572
H          H       0.75390   0.67754   0.79913   0.12348
H          H       0.03827   0.84369   0.60658   0.12084
H          H       0.36991   0.50633   0.52158   0.12729
H          H       0.00131   0.78931   0.49477   0.12362
H          H       0.97168   0.54542   0.56745   0.12369
H          H       0.89476   0.65209   0.76609   0.11652
H          H       0.01782   0.56814   0.78422   0.12351
H          H       0.36522   0.50149   0.64154   0.11436
H          H       0.88074   0.38027   0.95426   0.12140
H          H       0.54100   0.72741   0.64996   0.12781
H          H       0.01026   0.59873   0.67807   0.12244
H          H       0.67198   0.69030   0.90877   0.12492
H          H       0.16728   0.63521   0.36733   0.12122
H          H       0.58381   0.44288   0.96603   0.11712
H          H       0.54184   0.73537   0.52949   0.13066
H          H       0.44080   0.79493   0.44031   0.11866
H          H       0.32247   0.86463   0.41437   0.12879
H          H       0.93073   0.32460   0.85234   0.12046
H          H       0.96441   0.62355   0.88289   0.12139
H          H       0.28743   0.56459   0.39202   0.12880
H          H       0.68241   0.81991   0.44444   0.13375
H          H       0.65920   0.56576   0.27592   0.11723
H          H       0.51890   0.59072   0.24180   0.12661
H          H       0.77248   0.06682   0.50483   0.12601
H          H       0.74620   0.82240   0.29915   0.12334
H          H       0.46157   0.65626   0.10682   0.12066
H          H       0.13010   0.99376   0.02166   0.12741
H          H       0.49872   0.71051   0.99496   0.12391
H          H       0.52834   0.95448   0.06747   0.12406
H          H       0.60537   0.84792   0.26614   0.11640
H          H       0.48244   0.93201   0.28416   0.12322
H          H       0.13483  -0.00144   0.14161   0.11398
H          H       0.61939   0.11991   0.45424   0.12142
H          H       0.95889   0.77272   0.15001   0.12795
H          H       0.48947   0.90126   0.17810   0.12294
H          H       0.82801   0.80994   0.40876   0.12493
H          H       0.33264   0.86466   0.86732   0.12102
H          H       0.91619   0.05737   0.46600   0.11732
H          H       0.95800   0.76483   0.02955   0.13061
H          H       0.05917   0.70505   0.94047   0.11822
H          H       0.17746   0.63530   0.91442   0.12861
H          H       0.56973   0.17563   0.35216   0.12069
H          H       0.53552   0.87666   0.38300   0.12075
H          H       0.21252   0.93537   0.89204   0.12918
H          H       0.18244   0.31960   0.05544   0.13411
H          H       0.15925   0.06583   0.22417   0.11753
H          H       0.01889   0.09074   0.25828   0.12661
H          H       0.27251   0.56654   0.99494   0.12585
H          H       0.24610   0.32246   0.20087   0.12354
H          H       0.96174   0.15631   0.39342   0.12072
H          H       0.63009   0.49367   0.47842   0.12734
H          H      -0.00131   0.21069   0.50523   0.12352
H          H       0.02832   0.45458   0.43255   0.12387
H          H       0.10524   0.34791   0.23391   0.11678
H          H       0.98218   0.43187   0.21578   0.12341
H          H       0.63478   0.49852   0.35846   0.11445
H          H       0.11926   0.61974   0.04574   0.12147
H          H       0.45900   0.27259   0.35004   0.12771
H          H       0.98974   0.40128   0.32193   0.12251
H          H       0.32802   0.30970   0.09123   0.12483
H          H       0.83272   0.36479   0.63267   0.12126
H          H       0.41619   0.55713   0.03397   0.11722
H          H       0.45816   0.26464   0.47051   0.13061
H          H       0.55920   0.20508   0.55969   0.11862
H          H       0.67753   0.13537   0.58563   0.12872
H          H       0.06927   0.67540   0.14766   0.12054
H          H       0.03559   0.37645   0.11711   0.12130
H          H       0.71257   0.43542   0.60798   0.12902
H          H       0.31759   0.18010   0.55556   0.13394
H          H       0.34080   0.43424   0.72408   0.11743
H          H       0.48110   0.40928   0.75820   0.12673
H          H       0.22752   0.93318   0.49517   0.12579
H          H       0.25380   0.17761   0.70085   0.12328
H          H       0.53844   0.34375   0.89318   0.12070
H          H       0.86990   0.00624   0.97834   0.12739
H          H       0.50128   0.28949   0.00504   0.12402
H          H       0.47166   0.04553   0.93253   0.12442
H          H       0.39463   0.15208   0.73386   0.11633
H          H       0.51756   0.06800   0.71584   0.12324
H          H       0.86517   0.00144   0.85839   0.11391
H          H       0.38061   0.88009   0.54576   0.12128
H          H       0.04111   0.22729   0.84999   0.12811
H          H       0.51054   0.09875   0.82190   0.12282
H          H       0.17199   0.19006   0.59124   0.12507
H          H       0.66736   0.13535   0.13268   0.12094
H          H       0.08381   0.94263   0.53400   0.11718
H          H       0.04200   0.23517   0.97045   0.13071
H          H       0.94083   0.29496   0.05953   0.11833
H          H       0.82254   0.36470   0.08558   0.12864
H          H       0.43027   0.82438   0.64784   0.12063
H          H       0.46448   0.12334   0.61700   0.12088
H          H       0.78748   0.06464   0.10797   0.12906
C          C       0.76598   0.62912   0.94929  -0.09804
C          C       0.85296   0.87278   0.77408  -0.08451
C          C       0.93106   0.85922   0.75435  -0.08554
C          C       0.71516   0.48862   0.98263  -0.09522
C          C       0.80413   0.72762   0.78697  -0.07707
C          C       0.02386   0.77880   0.59707  -0.09972
C          C       0.37011   0.67598   0.41726  -0.06304
C          C       0.40582   0.55509   0.55008  -0.09331
C          C       0.00355   0.74868   0.53538  -0.07683
C          C       0.78961   0.80747   0.79072  -0.02894
C          C       0.98618   0.61034   0.57658  -0.07459
C          C       0.53769   0.57265   0.90682   0.57374
C          C       0.88239   0.71355   0.76815  -0.09667
C          C       0.98544   0.52699   0.82022  -0.07998
C          C       0.91855   0.50469   0.92339  -0.07323
C          C       0.40403   0.55228   0.61721  -0.07016
C          C       0.94517   0.77968   0.75214  -0.06168
C          C       0.23761   0.75374   0.38976  -0.03657
C          C       0.70657   0.82294   0.81269   0.59285
C          C       0.90862   0.42055   0.91592  -0.08676
C          C       0.50345   0.67990   0.62126  -0.07258
C          C       0.97518   0.44285   0.81149  -0.02970
C          C       0.00735   0.64021   0.63822  -0.10290
C          C       0.68537   0.63463   0.92951  -0.07295
C          C       0.22729   0.66912   0.38350  -0.07610
C          C       0.98370   0.66436   0.52530  -0.03077
C          C       0.63518   0.49421   0.96142  -0.07848
C          C       0.45504   0.61371   0.72495   0.59679
C          C       0.50427   0.68408   0.55425  -0.09889
C          C       0.95689   0.63265   0.46063   0.57723
C          C       0.38098   0.76018   0.42446  -0.09306
C          C       0.45573   0.62105   0.51925  -0.06572
C          C       0.16728   0.79545   0.37223   0.60271
C          C       0.62048   0.56677   0.93401  -0.02876
C          C       0.31450   0.79905   0.41040  -0.07732
C          C       0.93699   0.38964   0.85948  -0.06616
C          C       0.45327   0.61438   0.65308  -0.03042
C          C       0.95645   0.55837   0.87596  -0.08772
C          C       0.00730   0.41094   0.75139   0.59367
C          C       0.77995   0.55577   0.97505  -0.06385
C          C       0.02516   0.72420   0.64791  -0.05874
C          C       0.29360   0.62987   0.39733  -0.09555
C          C       0.73402   0.87115   0.44920  -0.09746
C          C       0.64705   0.62718   0.27414  -0.08421
C          C       0.56896   0.64077   0.25442  -0.08576
C          C       0.78485   0.01163   0.48249  -0.09538
C          C       0.69594   0.77234   0.28699  -0.07550
C          C       0.47608   0.72114   0.09725  -0.10095
C          C       0.12986   0.82399   0.91736  -0.06378
C          C       0.09418   0.94499   0.05014  -0.09354
C          C       0.49653   0.75119   0.03555  -0.07605
C          C       0.71043   0.69249   0.29076  -0.03001
C          C       0.51387   0.88956   0.07665  -0.07421
C          C       0.96238   0.92746   0.40685   0.57333
C          C       0.61768   0.78644   0.26820  -0.09708
C          C       0.51474   0.97321   0.32016  -0.08068
C          C       0.58144   0.99552   0.42340  -0.07465
C          C       0.09599   0.94779   0.11727  -0.06912
C          C       0.55487   0.72032   0.25222  -0.06175
C          C       0.26232   0.74618   0.88978  -0.03653
C          C       0.79348   0.67703   0.31271   0.59362
C          C       0.59155   0.07966   0.41587  -0.08552
C          C       0.99648   0.82023   0.12134  -0.07269
C          C       0.52501   0.05734   0.31143  -0.02835
C          C       0.49254   0.85976   0.13829  -0.10420
C          C       0.81465   0.86563   0.42947  -0.07421
C          C       0.27263   0.83079   0.88351  -0.07634
C          C       0.51645   0.83550   0.02540  -0.03200
C          C       0.86485   0.00603   0.46135  -0.07868
C          C       0.04501   0.88636   0.22501   0.59796
C          C       0.99564   0.81607   0.05432  -0.09859
C          C       0.54309   0.86729   0.96070   0.57732
C          C       0.11899   0.73978   0.92457  -0.09252
C          C       0.04423   0.87903   0.01931  -0.06645
C          C       0.33267   0.70450   0.87223   0.60289
C          C       0.87958   0.93344   0.43400  -0.02742
C          C       0.18544   0.70088   0.91046  -0.07730
C          C       0.56331   0.11058   0.35938  -0.06716
C          C       0.04673   0.88572   0.15315  -0.03144
C          C       0.54361   0.94183   0.37596  -0.08612
C          C       0.49276   0.08925   0.25137   0.59314
C          C       0.72005   0.94448   0.47498  -0.06425
C          C       0.47481   0.77578   0.14806  -0.05768
C          C       0.20636   0.87008   0.89737  -0.09505
C          C       0.23402   0.37088   0.05071  -0.09799
C          C       0.14704   0.12723   0.22592  -0.08458
C          C       0.06894   0.14079   0.24565  -0.08558
C          C       0.28484   0.51138   0.01737  -0.09527
C          C       0.19588   0.27238   0.21303  -0.07697
C          C       0.97614   0.22120   0.40293  -0.09975
C          C       0.62989   0.32403   0.58274  -0.06303
C          C       0.59419   0.44492   0.44993  -0.09321
C          C       0.99645   0.25132   0.46462  -0.07689
C          C       0.21040   0.19254   0.20928  -0.02894
C          C       0.01383   0.38967   0.42342  -0.07474
C          C       0.46231   0.42735   0.09318   0.57393
C          C       0.11761   0.28646   0.23185  -0.09684
C          C       0.01456   0.47302   0.17978  -0.07996
C          C       0.08145   0.49532   0.07661  -0.07342
C          C       0.59597   0.44772   0.38279  -0.07017
C          C       0.05483   0.22033   0.24786  -0.06157
C          C       0.76239   0.24627   0.61024  -0.03669
C          C       0.29344   0.17706   0.18731   0.59279
C          C       0.09138   0.57945   0.08408  -0.08668
C          C       0.49655   0.32011   0.37874  -0.07260
C          C       0.02482   0.55715   0.18851  -0.02977
C          C       0.99265   0.35980   0.36178  -0.10284
C          C       0.31463   0.36537   0.07049  -0.07297
C          C       0.77271   0.33088   0.61650  -0.07600
C          C       0.01630   0.33564   0.47470  -0.03051
C          C       0.36482   0.50580   0.03858  -0.07837
C          C       0.54496   0.38630   0.27505   0.59678
C          C       0.49573   0.31593   0.44576  -0.09910
C          C       0.04311   0.36736   0.53937   0.57703
C          C       0.61903   0.23982   0.57554  -0.09317
C          C       0.54427   0.37895   0.48075  -0.06560
C          C       0.83272   0.20455   0.62777   0.60275
C          C       0.37952   0.43323   0.06599  -0.02887
C          C       0.68550   0.20095   0.58960  -0.07737
C          C       0.06301   0.61037   0.14052  -0.06603
C          C       0.54673   0.38562   0.34692  -0.03038
C          C       0.04355   0.44164   0.12404  -0.08768
C          C       0.99271   0.58906   0.24861   0.59371
C          C       0.22005   0.44423   0.02495  -0.06390
C          C       0.97485   0.27580   0.35209  -0.05883
C          C       0.70640   0.37013   0.60267  -0.09552
C          C       0.26598   0.12886   0.55080  -0.09746
C          C       0.35295   0.37282   0.72586  -0.08438
C          C       0.43104   0.35923   0.74558  -0.08567
C          C       0.21516   0.98837   0.51751  -0.09524
C          C       0.30406   0.22766   0.71301  -0.07565
C          C       0.52392   0.27886   0.90275  -0.10070
C          C       0.87014   0.17601   0.08264  -0.06376
C          C       0.90582   0.05501   0.94986  -0.09368
C          C       0.50347   0.24881   0.96445  -0.07600
C          C       0.28957   0.30751   0.70924  -0.02983
C          C       0.48613   0.11044   0.92335  -0.07515
C          C       0.03762   0.07255   0.59315   0.57341
C          C       0.38232   0.21356   0.73180  -0.09727
C          C       0.48526   0.02680   0.67984  -0.08059
C          C       0.41856   0.00448   0.57660  -0.07465
C          C       0.90401   0.05221   0.88273  -0.06930
C          C       0.44513   0.27969   0.74778  -0.06167
C          C       0.73768   0.25382   0.11022  -0.03652
C          C       0.20652   0.32297   0.68729   0.59369
C          C       0.40845   0.92034   0.58413  -0.08555
C          C       0.00352   0.17977   0.87866  -0.07280
C          C       0.47499   0.94266   0.68857  -0.02841
C          C       0.50746   0.14024   0.86171  -0.10431
C          C       0.18535   0.13437   0.57053  -0.07411
C          C       0.72737   0.16922   0.11649  -0.07640
C          C       0.48355   0.16450   0.97460  -0.03175
C          C       0.13515   0.99397   0.53865  -0.07873
C          C       0.95500   0.11364   0.77499   0.59801
C          C       0.00436   0.18393   0.94568  -0.09850
C          C       0.45691   0.13271   0.03930   0.57708
C          C       0.88101   0.26022   0.07543  -0.09265
C          C       0.95577   0.12097   0.98069  -0.06634
C          C       0.66733   0.29550   0.12778   0.60288
C          C       0.12042   0.06656   0.56600  -0.02748
C          C       0.81456   0.29912   0.08954  -0.07718
C          C       0.43669   0.88942   0.64062  -0.06720
C          C       0.95327   0.11428   0.84685  -0.03135
C          C       0.45639   0.05817   0.62404  -0.08607
C          C       0.50724   0.91076   0.74863   0.59335
C          C       0.27995   0.05552   0.52502  -0.06443
C          C       0.52519   0.22422   0.85194  -0.05756
C          C       0.79364   0.12993   0.10263  -0.09501
S          S       0.45588   0.62578   0.43323   0.95969
S          S       0.04573   0.76308   0.72775   0.95859
S          S       0.88404   0.54567   0.99532   0.96154
S          S       0.04411   0.87422   0.93329   0.96077
S          S       0.45428   0.73692   0.22789   0.96083
S          S       0.61594   0.95450   0.49530   0.96228
S          S       0.54412   0.37422   0.56677   0.95980
S          S       0.95427   0.23693   0.27225   0.95851
S          S       0.11596   0.45433   0.00468   0.96173
S          S       0.95589   0.12578   0.06672   0.96064
S          S       0.54572   0.26309   0.77211   0.96071
S          S       0.38406   0.04551   0.50470   0.96247
O          O       0.10422   0.75433   0.34398  -0.57186
O          O       0.51245   0.66279   0.75297  -0.56373
O          O       0.52056   0.64237   0.89319  -0.58316
O          O       0.00862   0.33610   0.74683  -0.55778
O          O       0.64631   0.76302   0.81531  -0.54530
O          O       0.95840   0.68178   0.41298  -0.58548
O          O       0.39870   0.56283   0.75542  -0.53373
O          O       0.17662   0.87185   0.38623  -0.54055
O          O       0.48285   0.50818   0.89572  -0.52668
O          O       0.03357   0.46421   0.70707  -0.54417
O          O       0.70358   0.89707   0.82806  -0.53817
O          O       0.92887   0.55651   0.45162  -0.51853
O          O       0.10121   0.84180   0.72369  -0.49790
O          O       0.06709   0.69756   0.76694  -0.50803
O          O       0.87926   0.48463   0.04596  -0.50627
O          O       0.93334   0.62728   0.00355  -0.51599
O          O       0.43315   0.54301   0.40887  -0.51420
O          O       0.53308   0.67907   0.41270  -0.51779
O          O       0.39575   0.74568   0.84402  -0.57158
O          O       0.98759   0.83725   0.25300  -0.56369
O          O       0.97944   0.85770   0.39323  -0.58366
O          O       0.49146   0.16409   0.24682  -0.55744
O          O       0.85373   0.73697   0.31534  -0.54509
O          O       0.54163   0.81819   0.91301  -0.58557
O          O       0.10137   0.93723   0.25548  -0.53420
O          O       0.32333   0.62810   0.88620  -0.54073
O          O       0.01726   0.99188   0.39571  -0.52607
O          O       0.46635   0.03591   0.20713  -0.54373
O          O       0.79645   0.60289   0.32805  -0.53880
O          O       0.57095   0.94346   0.95170  -0.51814
O          O       0.39874   0.65823   0.22375  -0.49833
O          O       0.43297   0.80240   0.26714  -0.50903
O          O       0.62071   0.01553   0.54595  -0.50632
O          O       0.56667   0.87287   0.50357  -0.51630
O          O       0.06686   0.95696   0.90887  -0.51408
O          O       0.96693   0.82092   0.91272  -0.51844
O          O       0.89578   0.24567   0.65602  -0.57171
O          O       0.48755   0.33722   0.24703  -0.56383
O          O       0.47944   0.35763   0.10681  -0.58352
O          O       0.99138   0.66390   0.25317  -0.55762
O          O       0.35369   0.23699   0.18469  -0.54497
O          O       0.04160   0.31822   0.58702  -0.58554
O          O       0.60130   0.43717   0.24458  -0.53356
O          O       0.82338   0.12815   0.61377  -0.54078
O          O       0.51715   0.49182   0.10428  -0.52650
O          O       0.96644   0.53579   0.29293  -0.54426
O          O       0.29642   0.10293   0.17194  -0.53842
O          O       0.07113   0.44350   0.54838  -0.51829
O          O       0.89879   0.15820   0.27631  -0.49801
O          O       0.93291   0.30244   0.23306  -0.50793
O          O       0.12074   0.51538   0.95404  -0.50623
O          O       0.06667   0.37272   0.99645  -0.51627
O          O       0.56685   0.45699   0.59114  -0.51404
O          O       0.46692   0.32093   0.58730  -0.51800
O          O       0.60425   0.25432   0.15598  -0.57170
O          O       0.01241   0.16275   0.74700  -0.56360
O          O       0.02056   0.14230   0.60677  -0.58346
O          O       0.50854   0.83591   0.75319  -0.55772
O          O       0.14627   0.26303   0.68466  -0.54536
O          O       0.45837   0.18181   0.08699  -0.58532
O          O       0.89863   0.06277   0.74452  -0.53440
O          O       0.67667   0.37190   0.11380  -0.54054
O          O       0.98274   0.00812   0.60429  -0.52639
O          O       0.53365   0.96409   0.79288  -0.54363
O          O       0.20355   0.39711   0.67195  -0.53866
O          O       0.42905   0.05654   0.04830  -0.51827
O          O       0.60126   0.34177   0.77625  -0.49811
O          O       0.56703   0.19761   0.73286  -0.50910
O          O       0.37929   0.98447   0.45405  -0.50655
O          O       0.43333   0.12713   0.49643  -0.51619
O          O       0.93314   0.04304   0.09113  -0.51426
O          O       0.03307   0.17908   0.08728  -0.51818

