data_crystal

_audit_creation_method 'AiiDA-DDEC plugin'

_cell_length_a         7.37270
_cell_length_b        21.10174
_cell_length_c        26.34704

_cell_angle_alpha     96.86673
_cell_angle_beta     89.90476
_cell_angle_gamma     90.05839

_symmetry_space_group_name_Hall 'P 1'
_symmetry_space_group_name_H-M  'P 1'

loop_
_symmetry_equiv_pos_as_xyz
 'x,y,z'

loop_
_atom_site_label
_atom_site_type_symbol
_atom_site_fract_x
_atom_site_fract_y
_atom_site_fract_z
_atom_site_charge
Zn         Zn      0.44018   0.01742   0.34728   0.84848
Zn         Zn      0.79586   0.08977   0.40794   0.83570
Zn         Zn      0.44090   0.48154   0.15306   0.84361
Zn         Zn      0.79566   0.41055   0.09221   0.83421
Zn         Zn      0.55984   0.98258   0.65271   0.84854
Zn         Zn      0.20414   0.91026   0.59205   0.83663
Zn         Zn      0.55910   0.51846   0.84693   0.84341
Zn         Zn      0.20436   0.58947   0.90778   0.83356
Zn         Zn      0.00135  -0.00001   0.49945   0.90838
Zn         Zn     -0.00071   0.49998  -0.00030   0.90961
H          H       0.10204   0.18202   0.35541   0.12266
H          H       0.97553   0.29116   0.35615   0.11929
H          H       0.44905   0.36888   0.43760   0.11189
H          H       0.57546   0.26049   0.43463   0.12359
H          H       0.76585   0.45274   0.37612   0.10459
H          H       0.64407   0.46573   0.29118   0.12144
H          H       0.13741   0.39131   0.22058   0.12048
H          H       0.26004   0.37515   0.30570   0.11794
H          H       0.39216   0.89878   0.41947   0.15005
H          H       0.65810   0.88858   0.49450   0.13903
H          H       0.05659   0.65107   0.10410   0.12441
H          H       0.87121   0.74608   0.97786   0.10536
H          H       0.71027   0.82529   0.03722   0.10983
H          H       0.91940   0.73644   0.16451   0.11998
H          H       0.61602   0.84711   0.25140   0.10853
H          H       0.81959   0.89465   0.31999   0.11053
H          H       0.21683   0.93249   0.20852   0.11551
H          H       0.02171   0.88024   0.13918   0.11539
H          H       0.10107   0.31824   0.14464   0.12239
H          H       0.97225   0.20913   0.14367   0.12005
H          H       0.44440   0.13130   0.06132   0.11169
H          H       0.57308   0.23938   0.06472   0.12426
H          H       0.76469   0.04702   0.12439   0.10464
H          H       0.64343   0.03382   0.20950   0.12186
H          H       0.13626   0.10974   0.27938   0.12042
H          H       0.25781   0.12603   0.19413   0.11733
H          H       0.39272   0.60127   0.08107   0.15046
H          H       0.65835   0.61156   0.00577   0.13746
H          H       0.05756   0.84929   0.39555   0.12583
H          H       0.86781   0.75470   0.52178   0.10401
H          H       0.70616   0.67592   0.46242   0.11010
H          H       0.92009   0.76421   0.33522   0.11921
H          H       0.61768   0.65449   0.24750   0.10869
H          H       0.82180   0.60569   0.17940   0.10893
H          H       0.21466   0.56781   0.29163   0.11474
H          H       0.01859   0.62074   0.36045   0.11517
H          H       0.89796   0.81798   0.64459   0.12273
H          H       0.02448   0.70884   0.64385   0.11927
H          H       0.55095   0.63112   0.56240   0.11184
H          H       0.42455   0.73951   0.56536   0.12355
H          H       0.23415   0.54726   0.62387   0.10481
H          H       0.35594   0.53427   0.70882   0.12157
H          H       0.86260   0.60869   0.77942   0.12025
H          H       0.73996   0.62485   0.69430   0.11788
H          H       0.60790   0.10124   0.58057   0.15044
H          H       0.34210   0.11146   0.50549   0.13892
H          H       0.94341   0.34892   0.89590   0.12448
H          H       0.12881   0.25392   0.02214   0.10518
H          H       0.28975   0.17470   0.96278   0.10988
H          H       0.08061   0.26356   0.83548   0.12018
H          H       0.38399   0.15289   0.74860   0.10872
H          H       0.18040   0.10535   0.68001   0.11069
H          H       0.78318   0.06751   0.79148   0.11532
H          H       0.97830   0.11976   0.86081   0.11518
H          H       0.89894   0.68176   0.85536   0.12253
H          H       0.02776   0.79087   0.85633   0.12031
H          H       0.55561   0.86870   0.93868   0.11157
H          H       0.42693   0.76063   0.93527   0.12408
H          H       0.23532   0.95298   0.87560   0.10451
H          H       0.35657   0.96618   0.79049   0.12200
H          H       0.86374   0.89026   0.72062   0.12044
H          H       0.74219   0.87397   0.80586   0.11722
H          H       0.60726   0.39874   0.91895   0.15040
H          H       0.34153   0.38846   0.99422   0.13753
H          H       0.94245   0.15070   0.60445   0.12581
H          H       0.13218   0.24530   0.47822   0.10413
H          H       0.29384   0.32407   0.53758   0.11017
H          H       0.07991   0.23579   0.66478   0.11905
H          H       0.38232   0.34551   0.75249   0.10869
H          H       0.17822   0.39431   0.82059   0.10882
H          H       0.78534   0.43219   0.70837   0.11471
H          H       0.98142   0.37926   0.63955   0.11535
C          C       0.42733   0.14959   0.39297   0.59041
C          C       0.34750   0.21465   0.39452  -0.04971
C          C       0.17768   0.22341   0.37258  -0.06860
C          C       0.10655   0.28463   0.37362  -0.13273
C          C       0.20225   0.33803   0.39693   0.08481
C          C       0.37157   0.32890   0.41912  -0.14687
C          C       0.44393   0.26769   0.41761  -0.07797
C          C       0.10972   0.40361   0.39895  -0.26224
C          C       0.24428   0.46090   0.41079   0.68366
C          C       0.96938   0.40688   0.44360   0.68552
C          C       0.02184   0.41214   0.34721   0.08457
C          C       0.84852   0.43813   0.34275  -0.14898
C          C       0.77854   0.44572   0.29478  -0.07397
C          C       0.88118   0.42804   0.25063  -0.04378
C          C       0.05636   0.40347   0.25488  -0.07097
C          C       0.12530   0.39520   0.30277  -0.13480
C          C       0.80137   0.43457   0.19969   0.58992
C          C       0.51167   0.92717   0.43003  -0.00948
C          C       0.64251   0.92282   0.46734  -0.02227
C          C       0.04475   0.64044   0.00015   0.58059
C          C       0.97264   0.69322   0.03683  -0.05977
C          C       0.98670   0.69080   0.08976  -0.07925
C          C       0.87876   0.74369   0.01876  -0.07875
C          C       0.78906   0.78882   0.05277  -0.14472
C          C       0.79992   0.78625   0.10561   0.09882
C          C       0.90551   0.73812   0.12364  -0.13551
C          C       0.68774   0.82964   0.14513  -0.26542
C          C       0.53353   0.78603   0.16222   0.68635
C          C       0.59601   0.88677   0.12243   0.68702
C          C       0.80584   0.85880   0.19014   0.07664
C          C       0.74837   0.86415   0.24127  -0.14417
C          C       0.86205   0.89150   0.28021  -0.08142
C          C       0.03227   0.91560   0.26868  -0.03159
C          C       0.08651   0.91250   0.21742  -0.08418
C          C       0.97578   0.88359   0.17865  -0.13595
C          C       0.15485   0.94484   0.31041   0.56029
C          C       0.42722   0.34990   0.10684   0.59052
C          C       0.34563   0.28521   0.10513  -0.04892
C          C       0.17561   0.27675   0.12721  -0.07011
C          C       0.10335   0.21565   0.12609  -0.13178
C          C       0.19854   0.16234   0.10257   0.08782
C          C       0.36774   0.17127   0.08007  -0.14805
C          C       0.44128   0.23225   0.08172  -0.07888
C          C       0.10768   0.09657   0.10109  -0.26871
C          C       0.24603   0.04086   0.08981   0.68738
C          C       0.96869   0.09188   0.05638   0.68690
C          C       0.02008   0.08821   0.15295   0.08708
C          C       0.84721   0.06186   0.15770  -0.14921
C          C       0.77763   0.05416   0.20580  -0.07622
C          C       0.88039   0.07215   0.24982  -0.04201
C          C       0.05504   0.09725   0.24523  -0.07380
C          C       0.12347   0.10562   0.19724  -0.13295
C          C       0.80252   0.06558   0.30110   0.59026
C          C       0.51191   0.57279   0.07035  -0.01159
C          C       0.64250   0.57721   0.03285  -0.01600
C          C       0.04381   0.86028   0.49958   0.58118
C          C       0.97142   0.80750   0.46291  -0.05907
C          C       0.98654   0.80976   0.40997  -0.08228
C          C       0.87603   0.75718   0.48089  -0.07714
C          C       0.78578   0.71224   0.44684  -0.14598
C          C       0.79743   0.71470   0.39395   0.09689
C          C       0.90490   0.76259   0.37606  -0.13195
C          C       0.68546   0.67131   0.35418  -0.26541
C          C       0.53079   0.71518   0.33752   0.68578
C          C       0.59513   0.61384   0.37721   0.68730
C          C       0.80462   0.64242   0.30919   0.07892
C          C       0.74907   0.63709   0.25794  -0.14730
C          C       0.86311   0.60899   0.21925  -0.07908
C          C       0.03201   0.58427   0.23107  -0.03361
C          C       0.08499   0.58789   0.28242  -0.08194
C          C       0.97378   0.61736   0.32093  -0.13695
C          C       0.15463   0.55405   0.18959   0.56036
C          C       0.57267   0.85041   0.60703   0.59048
C          C       0.65250   0.78535   0.60547  -0.04964
C          C       0.82233   0.77659   0.62742  -0.06878
C          C       0.89345   0.71537   0.62638  -0.13271
C          C       0.79775   0.66197   0.60306   0.08481
C          C       0.62843   0.67110   0.58088  -0.14682
C          C       0.55607   0.73231   0.58238  -0.07803
C          C       0.89029   0.59639   0.60105  -0.26257
C          C       0.75573   0.53910   0.58920   0.68409
C          C       0.03063   0.59312   0.55639   0.68516
C          C       0.97817   0.58786   0.65279   0.08459
C          C       0.15148   0.56187   0.65725  -0.14888
C          C       0.22146   0.55428   0.70521  -0.07403
C          C       0.11883   0.57195   0.74937  -0.04380
C          C       0.94365   0.59653   0.74512  -0.07084
C          C       0.87470   0.60480   0.69723  -0.13490
C          C       0.19864   0.56543   0.80030   0.58997
C          C       0.48840   0.07286   0.56999  -0.01007
C          C       0.35777   0.07721   0.53263  -0.02124
C          C       0.95524   0.35953  -0.00016   0.58149
C          C       0.02740   0.30676   0.96317  -0.05974
C          C       0.01332   0.30919   0.91024  -0.07938
C          C       0.12127   0.25630   0.98123  -0.07875
C          C       0.21096   0.21117   0.94723  -0.14498
C          C       0.20010   0.21374   0.89438   0.09901
C          C       0.09450   0.26188   0.87635  -0.13552
C          C       0.31227   0.17035   0.85486  -0.26550
C          C       0.46648   0.21396   0.83778   0.68639
C          C       0.40400   0.11323   0.87757   0.68698
C          C       0.19417   0.14120   0.80986   0.07682
C          C       0.25163   0.13585   0.75873  -0.14432
C          C       0.13795   0.10850   0.71979  -0.08115
C          C       0.96773   0.08440   0.73132  -0.03161
C          C       0.91350   0.08750   0.78258  -0.08417
C          C       0.02423   0.11642   0.82135  -0.13634
C          C       0.84515   0.05517   0.68959   0.55960
C          C       0.57279   0.65010   0.89316   0.59069
C          C       0.65438   0.71479   0.89487  -0.04907
C          C       0.82439   0.72325   0.87279  -0.07025
C          C       0.89666   0.78435   0.87391  -0.13137
C          C       0.80146   0.83766   0.89743   0.08765
C          C       0.63226   0.82873   0.91992  -0.14808
C          C       0.55873   0.76775   0.91827  -0.07895
C          C       0.89233   0.90343   0.89891  -0.26856
C          C       0.75398   0.95914   0.91018   0.68753
C          C       0.03132   0.90812   0.94362   0.68692
C          C       0.97993   0.91179   0.84704   0.08688
C          C       0.15280   0.93814   0.84230  -0.14899
C          C       0.22238   0.94584   0.79420  -0.07629
C          C       0.11962   0.92785   0.75018  -0.04196
C          C       0.94497   0.90275   0.75477  -0.07384
C          C       0.87653   0.89438   0.80275  -0.13291
C          C       0.19749   0.93442   0.69889   0.59001
C          C       0.48807   0.42723   0.92967  -0.01163
C          C       0.35734   0.42281   0.96713  -0.01605
C          C       0.95622   0.13969   0.50041   0.57904
C          C       0.02853   0.19249   0.53709  -0.05865
C          C       0.01345   0.19023   0.59003  -0.08211
C          C       0.12394   0.24282   0.51911  -0.07711
C          C       0.21421   0.28775   0.55316  -0.14597
C          C       0.20256   0.28530   0.60604   0.09685
C          C       0.09510   0.23741   0.62393  -0.13227
C          C       0.31455   0.32869   0.64582  -0.26564
C          C       0.46921   0.28482   0.66248   0.68583
C          C       0.40487   0.38616   0.62279   0.68720
C          C       0.19539   0.35758   0.69081   0.07915
C          C       0.25094   0.36291   0.74206  -0.14721
C          C       0.13690   0.39101   0.78074  -0.07928
C          C       0.96799   0.41573   0.76893  -0.03363
C          C       0.91502   0.41211   0.71757  -0.08187
C          C       0.02623   0.38265   0.67907  -0.13697
C          C       0.84539   0.44595   0.81041   0.56095
N          N       0.55423   0.97867   0.40637  -0.16714
N          N       0.70384   0.00544   0.42806  -0.07838
N          N       0.75916   0.97212   0.46519  -0.16048
N          N       0.55431   0.52117   0.09386  -0.16435
N          N       0.70351   0.49443   0.07185  -0.07596
N          N       0.75877   0.52782   0.03468  -0.16430
N          N       0.44569   0.02135   0.59362  -0.16659
N          N       0.29621   0.99456   0.57186  -0.07774
N          N       0.24121   0.02789   0.53471  -0.16100
N          N       0.44574   0.47884   0.90613  -0.16427
N          N       0.29646   0.50556   0.92810  -0.07621
N          N       0.24103   0.47218   0.96525  -0.16473
O          O       0.58174   0.14615   0.41449  -0.56292
O          O       0.33663   0.10263   0.37087  -0.52796
O          O       0.64257   0.45747   0.19881  -0.54388
O          O       0.89898   0.41545   0.16027  -0.52381
O          O       0.10040   0.58961   0.01753  -0.59114
O          O       0.04436   0.64700   0.95240  -0.50622
O          O       0.11825   0.94320   0.35665  -0.57271
O          O       0.30011   0.97141   0.29380  -0.54083
O          O       0.58241   0.35292   0.08554  -0.56182
O          O       0.33666   0.39689   0.12894  -0.52799
O          O       0.64561   0.04128   0.30294  -0.54832
O          O       0.90011   0.08610   0.34011  -0.52245
O          O       0.10082   0.91101   0.48222  -0.58878
O          O       0.04221   0.85403   0.54737  -0.50814
O          O       0.11877   0.55529   0.14329  -0.57287
O          O       0.29886   0.52728   0.20646  -0.54033
O          O       0.41825   0.85385   0.58551  -0.56321
O          O       0.66336   0.89737   0.62913  -0.52763
O          O       0.35744   0.54253   0.80119  -0.54373
O          O       0.10102   0.58455   0.83973  -0.52410
O          O       0.89938   0.41032   0.98243  -0.59182
O          O       0.95564   0.35300   0.04759  -0.50624
O          O       0.88173   0.05681   0.64336  -0.57125
O          O       0.69988   0.02859   0.70621  -0.54123
O          O       0.41760   0.64708   0.91446  -0.56198
O          O       0.66335   0.60311   0.87106  -0.52793
O          O       0.35440   0.95872   0.69706  -0.54817
O          O       0.09990   0.91390   0.65988  -0.52230
O          O       0.89957   0.08889   0.51772  -0.58736
O          O       0.95787   0.14597   0.45261  -0.50822
O          O       0.88124   0.44471   0.85672  -0.57387
O          O       0.70116   0.47272   0.79354  -0.54022
F          F       0.30929   0.46673   0.45958  -0.20711
F          F       0.39082   0.45395   0.37881  -0.19989
F          F       0.16409   0.51732   0.40406  -0.20016
F          F       0.04520   0.39051   0.48727  -0.20109
F          F       0.82798   0.36541   0.43186  -0.20169
F          F       0.89907   0.46649   0.45471  -0.20466
F          F       0.39969   0.81899   0.18941  -0.19989
F          F       0.59990   0.74277   0.19194  -0.19900
F          F       0.45365   0.75217   0.12104  -0.21417
F          F       0.51795   0.92759   0.15971  -0.19763
F          F       0.71936   0.92079   0.09840  -0.19179
F          F       0.46247   0.86928   0.08791  -0.21178
F          F       0.30923   0.03467   0.04067  -0.20863
F          F       0.39238   0.05073   0.12130  -0.19880
F          F       0.17274   0.98403   0.09831  -0.19972
F          F       0.04508   0.10795   0.01264  -0.20092
F          F       0.82722   0.13311   0.06808  -0.20051
F          F       0.89940   0.03199   0.04542  -0.20567
F          F       0.40071   0.68273   0.30816  -0.19973
F          F       0.59918   0.76135   0.31054  -0.19949
F          F       0.44477   0.74622   0.37894  -0.21273
F          F       0.51811   0.57151   0.34062  -0.19830
F          F       0.71946   0.58079   0.40159  -0.19123
F          F       0.46228   0.63199   0.41188  -0.21068
F          F       0.69071   0.53327   0.54042  -0.20701
F          F       0.60918   0.54605   0.62118  -0.20023
F          F       0.83591   0.48268   0.59593  -0.20031
F          F       0.95480   0.60949   0.51273  -0.20077
F          F       0.17203   0.63459   0.56814  -0.20151
F          F       0.10093   0.53351   0.54529  -0.20441
F          F       0.60032   0.18101   0.81058  -0.19961
F          F       0.40011   0.25723   0.80805  -0.19890
F          F       0.54636   0.24783   0.87896  -0.21437
F          F       0.48206   0.07241   0.84029  -0.19725
F          F       0.28064   0.07921   0.90160  -0.19204
F          F       0.53754   0.13072   0.91209  -0.21195
F          F       0.69078   0.96533   0.95933  -0.20899
F          F       0.60763   0.94927   0.87870  -0.19883
F          F       0.82726   0.01597   0.90169  -0.19959
F          F       0.95492   0.89205   0.98735  -0.20130
F          F       0.17278   0.86689   0.93192  -0.20035
F          F       0.10061   0.96801   0.95458  -0.20564
F          F       0.59929   0.31727   0.69184  -0.19984
F          F       0.40082   0.23865   0.68946  -0.19966
F          F       0.55524   0.25378   0.62106  -0.21238
F          F       0.48190   0.42849   0.65938  -0.19839
F          F       0.28055   0.41921   0.59840  -0.19117
F          F       0.53773   0.36801   0.58811  -0.21036

