data_crystal

_audit_creation_method 'AiiDA-DDEC plugin'

_cell_length_a        13.02843
_cell_length_b        25.29146
_cell_length_c        25.29180

_cell_angle_alpha     117.17368
_cell_angle_beta     99.92952
_cell_angle_gamma     99.93472

_symmetry_space_group_name_Hall 'P 1'
_symmetry_space_group_name_H-M  'P 1'

loop_
_symmetry_equiv_pos_as_xyz
 'x,y,z'

loop_
_atom_site_label
_atom_site_type_symbol
_atom_site_fract_x
_atom_site_fract_y
_atom_site_fract_z
_atom_site_charge
Cu         Cu      0.54095   0.46001   0.00017   0.88988
Cu         Cu      0.08032   0.54043   0.54041   0.88409
Cu         Cu      0.54043   0.00011   0.46006   0.89557
Cu         Cu      0.45947   0.53986  -0.00019   0.88876
Cu         Cu      0.45972  -0.00004   0.53996   0.89131
Cu         Cu      0.92011   0.45981   0.45978   0.89186
H          H       0.30144   0.29224   0.85384   0.12242
H          H       0.15283   0.43510   0.86253   0.14304
H          H       0.43738   0.11930   0.77599   0.12029
H          H       0.25605   0.13673   0.81864   0.11619
H          H       0.53571   0.19231   0.72703   0.11930
H          H       0.43373   0.18357   0.66441   0.14017
H          H       0.46261   0.11660   0.66317   0.11946
H          H       0.10343   0.17356   0.79335   0.09740
H          H       0.07182   0.16374   0.71810   0.10142
H          H       0.00716   0.56211   0.70695   0.12335
H          H       0.71488   0.42715   0.56443   0.14302
H          H       0.31903   0.65717   0.88156   0.11865
H          H       0.12093   0.68300   0.86395   0.11479
H          H       0.34316   0.53437   0.80766   0.12005
H          H       0.24954   0.48119   0.81690   0.13935
H          H       0.34568   0.54740   0.88355   0.12041
H          H       0.93094   0.62094   0.82419   0.09666
H          H       0.90811   0.55693   0.83627   0.10097
H          H       0.44232   0.14405   0.43608   0.12244
H          H       0.28726   0.13659   0.57152   0.14268
H          H       0.65965   0.22415   0.34266   0.11839
H          H       0.43553   0.18068   0.31715   0.11650
H          H       0.80758   0.27316   0.46591   0.12054
H          H       0.76716   0.33569   0.51905   0.14041
H          H       0.79786   0.33633   0.45320   0.12101
H          H       0.30837   0.20435   0.37898   0.09659
H          H       0.35084   0.28019   0.44381   0.10068
H          H       0.55763   0.56387   0.85603   0.12195
H          H       0.71263   0.42840   0.86332   0.14261
H          H       0.34015   0.65736   0.77541   0.11766
H          H       0.56419   0.68299   0.81921   0.11638
H          H       0.19217   0.53390   0.72671   0.12103
H          H       0.23282   0.48092   0.66415   0.14064
H          H       0.20205   0.54686   0.66368   0.12120
H          H       0.69135   0.62127   0.79618   0.09563
H          H       0.64940   0.55665   0.72016   0.09960
H          H       0.69855   0.14618   0.70747   0.12206
H          H       0.84772   0.13740   0.56489   0.14330
H          H       0.56273   0.22402   0.88082   0.12014
H          H       0.74375   0.18112   0.86293   0.11638
H          H       0.46435   0.27316   0.80787   0.11925
H          H       0.56644   0.33584   0.81685   0.14016
H          H       0.53746   0.33677   0.88367   0.11955
H          H       0.89610   0.20638   0.82616   0.09753
H          H       0.92812   0.28175   0.83627   0.10209
H          H       0.99278   0.29306   0.43776   0.12270
H          H       0.28479   0.43554   0.57293   0.14279
H          H       0.68101   0.11832   0.34292   0.11979
H          H       0.87912   0.13606   0.31705   0.11524
H          H       0.65690   0.19227   0.46562   0.12019
H          H       0.75058   0.18314   0.51892   0.13916
H          H       0.65447   0.11641   0.45277   0.12023
H          H       0.06896   0.17572   0.37898   0.09698
H          H       0.09203   0.16373   0.44304   0.10117
H          H       0.69907   0.70780   0.14596   0.12235
H          H       0.84765   0.56503   0.13766   0.14242
H          H       0.56235   0.88061   0.22413   0.12028
H          H       0.74346   0.86306   0.18124   0.11596
H          H       0.46432   0.80746   0.27325   0.11948
H          H       0.56669   0.81656   0.33591   0.13953
H          H       0.53732   0.88331   0.33685   0.12038
H          H       0.89612   0.82637   0.20645   0.09687
H          H       0.92820   0.83650   0.28183   0.10142
H          H       0.99194   0.43853   0.29284   0.12267
H          H       0.28549   0.57174   0.43534   0.14218
H          H       0.68023   0.34306   0.11851   0.11866
H          H       0.87888   0.31780   0.13636   0.11671
H          H       0.65528   0.46570   0.19239   0.11954
H          H       0.74834   0.51900   0.18297   0.13988
H          H       0.65244   0.45257   0.11640   0.12021
H          H       0.06853   0.38012   0.17507   0.09724
H          H       0.09045   0.44473   0.16386   0.10122
H          H       0.55663   0.85546   0.56344   0.12196
H          H       0.71389   0.86414   0.42925   0.14341
H          H       0.33888   0.77526   0.65673   0.11927
H          H       0.56298   0.81865   0.68215   0.11670
H          H       0.19097   0.72630   0.53317   0.12027
H          H       0.23119   0.66340   0.48040   0.13869
H          H       0.20033   0.66345   0.54651   0.12036
H          H       0.69011   0.79437   0.62030   0.09720
H          H       0.64691   0.71877   0.55501   0.10097
H          H       0.44394   0.43695   0.14480   0.12246
H          H       0.28524   0.57031   0.13525   0.14362
H          H       0.66084   0.34324   0.22482   0.11999
H          H       0.43686   0.31809   0.18118   0.11666
H          H       0.80928   0.46686   0.27381   0.12081
H          H       0.76914   0.51948   0.33679   0.13841
H          H       0.79947   0.45312   0.33636   0.12008
H          H       0.31011   0.37996   0.20554   0.09625
H          H       0.35332   0.44517   0.28115   0.10058
H          H       0.30127   0.85372   0.29236   0.12196
H          H       0.15280   0.86249   0.43528   0.14298
H          H       0.43703   0.77574   0.11945   0.11954
H          H       0.25633   0.81897   0.13735   0.11647
H          H       0.53473   0.72627   0.19244   0.12094
H          H       0.43205   0.66340   0.18281   0.13953
H          H       0.46178   0.66308   0.11636   0.12070
H          H       0.10373   0.79390   0.17407   0.09699
H          H       0.07125   0.71847   0.16379   0.10107
H          H       0.00767   0.70695   0.56136   0.12294
H          H       0.71428   0.56435   0.42782   0.14229
H          H       0.31929   0.88127   0.65666   0.11950
H          H       0.12071   0.86366   0.68205   0.11647
H          H       0.34410   0.80742   0.53409   0.11971
H          H       0.25121   0.81690   0.48079   0.14005
H          H       0.34715   0.88342   0.54722   0.12037
H          H       0.93098   0.82493   0.61973   0.09721
H          H       0.90888   0.83588   0.55502   0.10094
C          C       0.33418   0.41593   0.91447   0.58618
C          C       0.23716   0.36781   0.86371  -0.01723
C          C       0.23219   0.30476   0.83722  -0.15549
C          C       0.14069   0.25850   0.79071   0.06174
C          C       0.05135   0.27646   0.77048  -0.00953
C          C       0.06214   0.33915   0.79750   0.03613
C          C       0.14959   0.38633   0.84301  -0.14284
C          C       0.37460   0.13875   0.76529  -0.14899
C          C       0.28614   0.14771   0.78649  -0.14923
C          C       0.45656   0.16308   0.69290  -0.28839
C          C       0.13252   0.19002   0.76367  -0.10761
C          C       0.28567   0.18347   0.71681  -0.31728
C          C       0.91539   0.49879   0.58327   0.58526
C          C       0.86677   0.49598   0.63136  -0.01532
C          C       0.92558   0.53260   0.69436  -0.15695
C          C       0.88141   0.53218   0.74077   0.06192
C          C       0.77447   0.49357   0.72324  -0.01103
C          C       0.72189   0.45758   0.66047   0.03765
C          C       0.76109   0.45629   0.61317  -0.14584
C          C       0.23646   0.62712   0.86154  -0.13978
C          C       0.13932   0.63960   0.85245  -0.14767
C          C       0.29304   0.53011   0.83693  -0.28143
C          C       0.94269   0.57473   0.80904  -0.10329
C          C       0.10187   0.53380   0.81530  -0.30924
C          C       0.41514   0.08374   0.49959   0.58554
C          C       0.36920   0.13460   0.50243  -0.01571
C          C       0.39086   0.16110   0.46592  -0.15557
C          C       0.34777   0.20843   0.46715   0.06059
C          C       0.28029   0.22967   0.50619  -0.00822
C          C       0.26368   0.20257   0.54182   0.03741
C          C       0.30397   0.15624   0.54244  -0.14846
C          C       0.60762   0.23432   0.37287  -0.14042
C          C       0.49788   0.21280   0.36042  -0.14912
C          C       0.76204   0.30685   0.47016  -0.28554
C          C       0.36667   0.23486   0.42529  -0.10353
C          C       0.56705   0.28192   0.46618  -0.31012
C          C       0.58457   0.50052   0.91629   0.58696
C          C       0.63058   0.49750   0.86532  -0.01402
C          C       0.60898   0.53402   0.83886  -0.15577
C          C       0.65213   0.53287   0.79159   0.05953
C          C       0.71955   0.49382   0.77032  -0.00811
C          C       0.73604   0.45813   0.79736   0.03788
C          C       0.69582   0.45749   0.84370  -0.14857
C          C       0.39219   0.62717   0.76549  -0.13938
C          C       0.50192   0.63966   0.78715  -0.15740
C          C       0.23780   0.52978   0.69307  -0.28628
C          C       0.63327   0.57492   0.76541  -0.10630
C          C       0.43279   0.53382   0.71836  -0.31597
C          C       0.66638   0.08575   0.58382   0.58504
C          C       0.76332   0.13643   0.63204  -0.01610
C          C       0.76795   0.16278   0.69504  -0.15595
C          C       0.85934   0.20929   0.74141   0.06200
C          C       0.94882   0.22964   0.72361  -0.00896
C          C       0.93839   0.20266   0.66096   0.03609
C          C       0.85104   0.15715   0.61368  -0.14387
C          C       0.62539   0.23465   0.86124  -0.14874
C          C       0.71371   0.21339   0.85213  -0.14929
C          C       0.54355   0.30720   0.83716  -0.28884
C          C       0.86729   0.23622   0.80984  -0.10815
C          C       0.71423   0.28319   0.81654  -0.31726
C          C       0.08449   0.41675   0.50132   0.58539
C          C       0.13304   0.36862   0.50409  -0.01602
C          C       0.07431   0.30561   0.46733  -0.15574
C          C       0.11852   0.25921   0.46775   0.06166
C          C       0.22541   0.27677   0.50646  -0.01119
C          C       0.27803   0.33954   0.54252   0.03729
C          C       0.23862   0.38679   0.54376  -0.14636
C          C       0.76359   0.13837   0.37295  -0.14830
C          C       0.86070   0.14749   0.36044  -0.14906
C          C       0.70703   0.16303   0.46999  -0.28901
C          C       0.05733   0.19091   0.42522  -0.10448
C          C       0.89819   0.18459   0.46624  -0.31648
C          C       0.66625   0.58398   0.08559   0.58509
C          C       0.76329   0.63221   0.13630  -0.01677
C          C       0.76820   0.69526   0.16267  -0.15604
C          C       0.85946   0.74157   0.20936   0.06183
C          C       0.94869   0.72370   0.22984  -0.00828
C          C       0.93812   0.66104   0.20282   0.03609
C          C       0.85084   0.61380   0.15720  -0.14256
C          C       0.62513   0.86109   0.23473  -0.14178
C          C       0.71352   0.85216   0.21348  -0.14844
C          C       0.54352   0.83682   0.30726  -0.28112
C          C       0.86739   0.81001   0.23628  -0.10630
C          C       0.71425   0.81640   0.28316  -0.31122
C          C       0.08458   0.50126   0.41669   0.58588
C          C       0.13302   0.50392   0.36849  -0.01666
C          C       0.07381   0.46778   0.30550  -0.15608
C          C       0.11801   0.46832   0.25913   0.06234
C          C       0.22542   0.50655   0.27673  -0.01068
C          C       0.27841   0.54187   0.33937   0.03473
C          C       0.23911   0.54302   0.38661  -0.14381
C          C       0.76266   0.37328   0.13857  -0.14331
C          C       0.86006   0.36108   0.14772  -0.15460
C          C       0.70516   0.47004   0.16304  -0.29173
C          C       0.05641   0.42633   0.19081  -0.10464
C          C       0.89659   0.46681   0.18466  -0.31779
C          C       0.58465   0.91626   0.50055   0.58791
C          C       0.63061   0.86533   0.49763  -0.01576
C          C       0.60838   0.83851   0.53380  -0.15567
C          C       0.65134   0.79112   0.53252   0.06191
C          C       0.71942   0.77028   0.49376  -0.00972
C          C       0.73668   0.79781   0.45868   0.03830
C          C       0.69663   0.84416   0.45798  -0.14697
C          C       0.39086   0.76508   0.62649  -0.14664
C          C       0.50060   0.78657   0.63888  -0.15181
C          C       0.23631   0.69258   0.52923  -0.28941
C          C       0.63170   0.76427   0.57396  -0.10521
C          C       0.43126   0.71746   0.53313  -0.31710
C          C       0.41549   0.49923   0.08354   0.58722
C          C       0.36909   0.50220   0.13435  -0.01452
C          C       0.39172   0.46636   0.16147  -0.15680
C          C       0.34869   0.46772   0.20885   0.06248
C          C       0.28021   0.50627   0.22950  -0.00831
C          C       0.26266   0.54116   0.20175   0.03634
C          C       0.30277   0.54169   0.15533  -0.14768
C          C       0.60903   0.37356   0.23487  -0.14830
C          C       0.49934   0.36129   0.21331  -0.15091
C          C       0.76376   0.47065   0.30742  -0.28945
C          C       0.36849   0.42630   0.23566  -0.10467
C          C       0.56898   0.46704   0.28241  -0.31708
C          C       0.33420   0.91432   0.41588   0.58684
C          C       0.23713   0.86363   0.36799  -0.01815
C          C       0.23205   0.83716   0.30494  -0.15435
C          C       0.14044   0.79077   0.25874   0.06064
C          C       0.05115   0.77053   0.27673  -0.00929
C          C       0.06190   0.79746   0.33941   0.03464
C          C       0.14959   0.84294   0.38650  -0.14325
C          C       0.37428   0.76520   0.13900  -0.14000
C          C       0.28611   0.78661   0.14812  -0.14849
C          C       0.45550   0.69237   0.16290  -0.28296
C          C       0.13227   0.76394   0.19029  -0.10595
C          C       0.28503   0.71673   0.18363  -0.30863
C          C       0.91539   0.58326   0.49875   0.58583
C          C       0.86674   0.63135   0.49597  -0.01680
C          C       0.92582   0.69436   0.53215  -0.15568
C          C       0.88162   0.74073   0.53164   0.06039
C          C       0.77424   0.72306   0.49342  -0.00977
C          C       0.72149   0.66039   0.45796   0.03600
C          C       0.76064   0.61308   0.45670  -0.14303
C          C       0.23685   0.86131   0.62649  -0.14572
C          C       0.13945   0.85222   0.63875  -0.15165
C          C       0.29431   0.83681   0.52975  -0.29231
C          C       0.94311   0.80907   0.57352  -0.10244
C          C       0.10284   0.81530   0.53300  -0.31473
N          N       0.23428   0.17482   0.75665   0.06902
N          N       0.37243   0.16091   0.72385   0.13953
N          N       0.05971   0.58255   0.82421   0.06758
N          N       0.21139   0.56332   0.83860   0.11405
N          N       0.47580   0.24204   0.41746   0.06847
N          N       0.64691   0.27544   0.43667   0.11700
N          N       0.52402   0.58260   0.75819   0.08974
N          N       0.35292   0.56333   0.72458   0.11607
N          N       0.76552   0.24324   0.82502   0.06887
N          N       0.62755   0.27615   0.83916   0.13944
N          N       0.94032   0.17570   0.41747   0.06727
N          N       0.78867   0.16129   0.43674   0.13787
N          N       0.76551   0.82506   0.24328   0.06959
N          N       0.62742   0.83891   0.27615   0.11571
N          N       0.93929   0.41826   0.17585   0.06902
N          N       0.78718   0.43705   0.16140   0.14001
N          N       0.52258   0.75732   0.58181   0.06941
N          N       0.35147   0.72395   0.56269   0.13838
N          N       0.47758   0.41843   0.24254   0.06926
N          N       0.64859   0.43736   0.27597   0.13893
N          N       0.23402   0.75677   0.17515   0.06759
N          N       0.37178   0.72364   0.16103   0.11399
N          N       0.06020   0.82411   0.58158   0.06488
N          N       0.21226   0.83850   0.56273   0.14033
O          O       0.40978   0.39734   0.93426  -0.54172
O          O       0.33382   0.47243   0.93460  -0.53573
O          O       0.00943   0.53762   0.60231  -0.54155
O          O       0.85942   0.46211   0.52655  -0.53521
O          O       0.47059   0.06380   0.46098  -0.54530
O          O       0.39578   0.06367   0.53617  -0.53633
O          O       0.52862   0.53887   0.93587  -0.54444
O          O       0.60447   0.46420   0.93657  -0.53662
O          O       0.59120   0.06564   0.60243  -0.54132
O          O       0.66604   0.06584   0.52720  -0.53556
O          O       0.99039   0.39773   0.46248  -0.54334
O          O       0.14053   0.47344   0.53795  -0.53537
O          O       0.59061   0.60250   0.06575  -0.54136
O          O       0.66645   0.52747   0.06559  -0.53494
O          O       0.99052   0.46237   0.39769  -0.54316
O          O       0.14055   0.53799   0.47338  -0.53542
O          O       0.52896   0.93603   0.53900  -0.54400
O          O       0.60441   0.93653   0.46419  -0.53778
O          O       0.47184   0.46106   0.06415  -0.54552
O          O       0.39553   0.53553   0.06325  -0.53599
O          O       0.40975   0.93414   0.39723  -0.54239
O          O       0.33428   0.93460   0.47250  -0.53782
O          O       0.00935   0.60229   0.53764  -0.54191
O          O       0.85945   0.52655   0.46199  -0.53490

