data_crystal

_audit_creation_method 'AiiDA-DDEC plugin'

_cell_length_a        11.94506
_cell_length_b        25.53470
_cell_length_c        26.26155

_cell_angle_alpha     116.65236
_cell_angle_beta     90.00000
_cell_angle_gamma     90.00000

_symmetry_space_group_name_Hall 'P 1'
_symmetry_space_group_name_H-M  'P 1'

loop_
_symmetry_equiv_pos_as_xyz
 'x,y,z'

loop_
_atom_site_label
_atom_site_type_symbol
_atom_site_fract_x
_atom_site_fract_y
_atom_site_fract_z
_atom_site_charge
Na         Na      0.49980   0.02372   0.07312   0.92851
Na         Na      0.49979   0.97628   0.42685   0.92846
Na         Na      0.50021   0.97628   0.92690   0.92841
Na         Na      0.50022   0.02372   0.57311   0.92848
Cd         Cd      0.83357   0.52758   0.90658   1.00675
Cd         Cd      0.26560   0.93129   0.48436   0.99289
Cd         Cd      0.83357   0.47242   0.59343   1.00671
Cd         Cd      0.26561   0.06870   0.01564   0.99270
Cd         Cd      0.16643   0.47242   0.09342   1.00665
Cd         Cd      0.73441   0.06870   0.51565   0.99275
Cd         Cd      0.16643   0.52758   0.40658   1.00673
Cd         Cd      0.73441   0.93129   0.98436   0.99294
Cd         Cd      0.77146   0.50000   0.75000   1.18511
Cd         Cd      0.22854   0.50000   0.25000   1.18514
H          H       0.06705   0.61143   0.07265   0.12696
H          H       0.19950   0.68587   0.13848   0.12520
H          H       0.20350   0.77021   0.02786   0.11779
H          H       0.07489   0.69351   0.96129   0.11713
H          H       0.45486   0.81726   0.19545   0.12240
H          H       0.44982   0.86279   0.30122   0.10426
H          H       0.09624   0.83391   0.29711   0.12102
H          H       0.09864   0.78926   0.19086   0.12722
H          H       0.44462   0.93791   0.11988   0.10237
H          H       0.30668   0.89172   0.15825   0.12795
H          H       0.43239   0.72140   0.04338   0.12470
H          H       0.57162   0.76818   0.00500   0.12399
H          H       0.50922   0.54606   0.77004   0.10850
H          H       0.35142   0.60647   0.76576   0.13203
H          H       0.36373   0.70850   0.94819   0.11460
H          H       0.52187   0.64691   0.95249   0.12080
H          H       0.14922   0.60560   0.85161   0.13524
H          H       0.00817   0.54624   0.78174   0.10828
H          H       0.02394   0.66108   0.70158   0.12308
H          H       0.16622   0.72223   0.77332   0.12820
H          H       0.08364   0.77061   0.88962   0.12786
H          H       0.09423   0.87923   0.93966   0.12759
H          H       0.45390   0.86918   0.93898   0.10423
H          H       0.44478   0.76209   0.88451   0.12924
H          H       0.06705   0.38857   0.42735   0.12675
H          H       0.19950   0.31413   0.36153   0.12493
H          H       0.20350   0.22979   0.47214   0.11823
H          H       0.07489   0.30648   0.53872   0.11750
H          H       0.45486   0.18274   0.30455   0.12253
H          H       0.44982   0.13721   0.19879   0.10423
H          H       0.09624   0.16609   0.20289   0.12097
H          H       0.09864   0.21073   0.30915   0.12728
H          H       0.44462   0.06208   0.38012   0.10260
H          H       0.30668   0.10828   0.34176   0.12804
H          H       0.43240   0.27859   0.45662   0.12439
H          H       0.57162   0.23182   0.49500   0.12397
H          H       0.50922   0.45393   0.72996   0.10861
H          H       0.35142   0.39352   0.73425   0.13248
H          H       0.36373   0.29150   0.55182   0.11458
H          H       0.52187   0.35309   0.54752   0.12040
H          H       0.14922   0.39440   0.64840   0.13468
H          H       0.00817   0.45376   0.71827   0.10771
H          H       0.02394   0.33891   0.79843   0.12361
H          H       0.16622   0.27777   0.72668   0.12873
H          H       0.08364   0.22938   0.61038   0.12769
H          H       0.09423   0.12076   0.56035   0.12765
H          H       0.45390   0.13082   0.56103   0.10435
H          H       0.44478   0.23791   0.61550   0.12908
H          H       0.93295   0.38857   0.92735   0.12657
H          H       0.80050   0.31413   0.86153   0.12477
H          H       0.79650   0.22979   0.97214   0.11835
H          H       0.92511   0.30648   0.03872   0.11728
H          H       0.54514   0.18274   0.80455   0.12261
H          H       0.55018   0.13720   0.69879   0.10422
H          H       0.90376   0.16609   0.70289   0.12088
H          H       0.90136   0.21073   0.80915   0.12728
H          H       0.55537   0.06208   0.88012   0.10265
H          H       0.69331   0.10828   0.84176   0.12797
H          H       0.56760   0.27859   0.95663   0.12438
H          H       0.42838   0.23182   0.99501   0.12399
H          H       0.49078   0.45393   0.22996   0.10850
H          H       0.64858   0.39352   0.23424   0.13232
H          H       0.63626   0.29150   0.05182   0.11457
H          H       0.47813   0.35309   0.04752   0.12048
H          H       0.85078   0.39440   0.14840   0.13482
H          H       0.99183   0.45376   0.21826   0.10782
H          H       0.97606   0.33891   0.29843   0.12345
H          H       0.83378   0.27777   0.22668   0.12868
H          H       0.91636   0.22938   0.11038   0.12765
H          H       0.90577   0.12077   0.06034   0.12764
H          H       0.54610   0.13082   0.06103   0.10435
H          H       0.55522   0.23791   0.11550   0.12911
H          H       0.93295   0.61143   0.57265   0.12707
H          H       0.80050   0.68586   0.63848   0.12534
H          H       0.79650   0.77020   0.52787   0.11768
H          H       0.92511   0.69351   0.46128   0.11712
H          H       0.54514   0.81725   0.69545   0.12234
H          H       0.55018   0.86279   0.80122   0.10433
H          H       0.90376   0.83390   0.79711   0.12110
H          H       0.90136   0.78926   0.69086   0.12716
H          H       0.55537   0.93792   0.61988   0.10230
H          H       0.69331   0.89172   0.65825   0.12797
H          H       0.56760   0.72140   0.54338   0.12475
H          H       0.42838   0.76817   0.50500   0.12398
H          H       0.49078   0.54606   0.27004   0.10856
H          H       0.64858   0.60647   0.26576   0.13217
H          H       0.63627   0.70850   0.44818   0.11453
H          H       0.47813   0.64691   0.45248   0.12062
H          H       0.85078   0.60560   0.35161   0.13511
H          H       0.99183   0.54624   0.28174   0.10810
H          H       0.97606   0.66108   0.20158   0.12329
H          H       0.83378   0.72223   0.27332   0.12834
H          H       0.91636   0.77061   0.38962   0.12785
H          H       0.90577   0.87923   0.43966   0.12757
H          H       0.54610   0.86918   0.43898   0.10426
H          H       0.55522   0.76209   0.38450   0.12924
C          C       0.98033   0.60515   0.97367   0.54677
C          C       0.06183   0.64828   0.01297  -0.04703
C          C       0.09730   0.64631   0.06313  -0.08176
C          C       0.17129   0.68825   0.10019  -0.19604
C          C       0.20960   0.73370   0.08816   0.18109
C          C       0.17517   0.73517   0.03749  -0.19525
C          C       0.10295   0.69255   0.00027  -0.08128
C          C       0.27707   0.80043   0.18577   0.18821
C          C       0.37620   0.82125   0.21761  -0.19035
C          C       0.37339   0.84697   0.27662  -0.08986
C          C       0.27283   0.85194   0.30601  -0.06170
C          C       0.17428   0.82991   0.27429  -0.07735
C          C       0.17577   0.80479   0.21495  -0.19513
C          C       0.27282   0.88021   0.36920   0.58156
C          C       0.59781   0.88516   0.03786   0.57779
C          C       0.51674   0.85614   0.06006  -0.04631
C          C       0.44178   0.89056   0.10336  -0.08235
C          C       0.36457   0.86486   0.12473  -0.17726
C          C       0.36102   0.80365   0.10297   0.18201
C          C       0.43546   0.76878   0.05953  -0.18232
C          C       0.51281   0.79484   0.03824  -0.07857
C          C       0.62002   0.55515   0.86362   0.58717
C          C       0.52519   0.59182   0.86179  -0.06924
C          C       0.47625   0.58084   0.80924  -0.08053
C          C       0.38831   0.61513   0.80662  -0.17742
C          C       0.34764   0.66161   0.85678   0.18687
C          C       0.39610   0.67286   0.90947  -0.18022
C          C       0.48413   0.63842   0.91182  -0.07012
C          C       0.16851   0.66722   0.81633   0.18404
C          C       0.12201   0.61798   0.81897  -0.16211
C          C       0.04224   0.58448   0.77931  -0.07700
C          C       0.00697   0.59911   0.73621  -0.07346
C          C       0.05052   0.64989   0.73513  -0.07036
C          C       0.13002   0.68396   0.77507  -0.17996
C          C       0.26348   0.75852   0.88343   0.18655
C          C       0.16467   0.79226   0.89956  -0.19046
C          C       0.17044   0.85311   0.92815  -0.07069
C          C       0.27438   0.88181   0.94328  -0.07329
C          C       0.37255   0.84787   0.92795  -0.08593
C          C       0.36776   0.78727   0.89751  -0.18801
C          C       0.28205   0.94679   0.97314   0.57764
C          C       0.93241   0.55884   0.69037   0.56644
C          C       0.98033   0.39484   0.52633   0.54726
C          C       0.06183   0.35172   0.48703  -0.04707
C          C       0.09730   0.35368   0.43688  -0.08222
C          C       0.17129   0.31175   0.39981  -0.19617
C          C       0.20960   0.26630   0.41184   0.18136
C          C       0.17517   0.26483   0.46251  -0.19513
C          C       0.10295   0.30744   0.49973  -0.08143
C          C       0.27707   0.19956   0.31423   0.18815
C          C       0.37620   0.17875   0.28239  -0.19044
C          C       0.37339   0.15302   0.22338  -0.08983
C          C       0.27283   0.14806   0.19400  -0.06162
C          C       0.17428   0.17009   0.22571  -0.07752
C          C       0.17577   0.19521   0.28505  -0.19511
C          C       0.27282   0.11979   0.13080   0.58175
C          C       0.59781   0.11484   0.46215   0.57740
C          C       0.51674   0.14385   0.43995  -0.04599
C          C       0.44178   0.10944   0.39665  -0.08215
C          C       0.36457   0.13513   0.37527  -0.17750
C          C       0.36102   0.19635   0.39703   0.18227
C          C       0.43546   0.23121   0.44047  -0.18249
C          C       0.51281   0.20516   0.46176  -0.07863
C          C       0.62002   0.44484   0.63639   0.58781
C          C       0.52519   0.40817   0.63822  -0.06963
C          C       0.47625   0.41915   0.69076  -0.08032
C          C       0.38831   0.38487   0.69338  -0.17726
C          C       0.34764   0.33838   0.64322   0.18703
C          C       0.39610   0.32713   0.59054  -0.18019
C          C       0.48413   0.36157   0.58819  -0.07040
C          C       0.16851   0.33278   0.68367   0.18433
C          C       0.12200   0.38201   0.68104  -0.16259
C          C       0.04224   0.41551   0.72069  -0.07699
C          C       0.00697   0.40089   0.76380  -0.07371
C          C       0.05052   0.35010   0.76487  -0.06983
C          C       0.13002   0.31603   0.72494  -0.17994
C          C       0.26348   0.24147   0.61658   0.18669
C          C       0.16467   0.20773   0.60044  -0.19058
C          C       0.17044   0.14688   0.57186  -0.07045
C          C       0.27438   0.11818   0.55673  -0.07299
C          C       0.37255   0.15213   0.57206  -0.08599
C          C       0.36776   0.21273   0.60250  -0.18791
C          C       0.28205   0.05320   0.52686   0.57704
C          C       0.93241   0.44115   0.80963   0.56620
C          C       0.01967   0.39485   0.02633   0.54713
C          C       0.93817   0.35172   0.98703  -0.04667
C          C       0.90270   0.35368   0.93688  -0.08227
C          C       0.82871   0.31175   0.89982  -0.19612
C          C       0.79040   0.26630   0.91184   0.18127
C          C       0.82483   0.26483   0.96251  -0.19499
C          C       0.89705   0.30744  -0.00027  -0.08126
C          C       0.72293   0.19956   0.81423   0.18813
C          C       0.62380   0.17874   0.78239  -0.19043
C          C       0.62660   0.15302   0.72338  -0.08982
C          C       0.72717   0.14806   0.69400  -0.06159
C          C       0.82572   0.17009   0.72572  -0.07763
C          C       0.82423   0.19520   0.78505  -0.19498
C          C       0.72718   0.11979   0.63080   0.58178
C          C       0.40220   0.11483   0.96214   0.57731
C          C       0.48326   0.14385   0.93995  -0.04589
C          C       0.55822   0.10944   0.89665  -0.08210
C          C       0.63543   0.13513   0.87528  -0.17750
C          C       0.63897   0.19635   0.89703   0.18213
C          C       0.56454   0.23121   0.94047  -0.18262
C          C       0.48718   0.20516   0.96177  -0.07850
C          C       0.37998   0.44484   0.13639   0.58771
C          C       0.47481   0.40817   0.13822  -0.06963
C          C       0.52375   0.41915   0.19076  -0.08024
C          C       0.61169   0.38487   0.19338  -0.17732
C          C       0.65236   0.33838   0.14322   0.18687
C          C       0.60390   0.32713   0.09054  -0.18009
C          C       0.51587   0.36157   0.08819  -0.07018
C          C       0.83149   0.33278   0.18367   0.18428
C          C       0.87799   0.38201   0.18104  -0.16257
C          C       0.95776   0.41551   0.22069  -0.07691
C          C       0.99303   0.40089   0.26379  -0.07378
C          C       0.94948   0.35010   0.26487  -0.06986
C          C       0.86998   0.31603   0.22494  -0.17999
C          C       0.73652   0.24147   0.11658   0.18673
C          C       0.83533   0.20773   0.10044  -0.19053
C          C       0.82956   0.14688   0.07185  -0.07056
C          C       0.72561   0.11818   0.05672  -0.07285
C          C       0.62745   0.15213   0.07205  -0.08598
C          C       0.63224   0.21273   0.10250  -0.18794
C          C       0.71793   0.05320   0.02687   0.57717
C          C       0.06759   0.44115   0.30963   0.56638
C          C       0.01967   0.60515   0.47367   0.54666
C          C       0.93817   0.64828   0.51298  -0.04716
C          C       0.90270   0.64631   0.56313  -0.08171
C          C       0.82871   0.68825   0.60019  -0.19597
C          C       0.79040   0.73370   0.58817   0.18125
C          C       0.82483   0.73517   0.53750  -0.19540
C          C       0.89705   0.69255   0.50027  -0.08140
C          C       0.72293   0.80043   0.68577   0.18821
C          C       0.62380   0.82125   0.71762  -0.19029
C          C       0.62660   0.84697   0.77662  -0.08984
C          C       0.72717   0.85194   0.80601  -0.06167
C          C       0.82572   0.82991   0.77429  -0.07729
C          C       0.82423   0.80479   0.71495  -0.19520
C          C       0.72718   0.88021   0.86920   0.58138
C          C       0.40220   0.88516   0.53786   0.57795
C          C       0.48326   0.85614   0.56006  -0.04626
C          C       0.55822   0.89056   0.60336  -0.08233
C          C       0.63543   0.86486   0.62473  -0.17727
C          C       0.63897   0.80365   0.60298   0.18197
C          C       0.56454   0.76878   0.55953  -0.18218
C          C       0.48718   0.79484   0.53824  -0.07876
C          C       0.37998   0.55515   0.36361   0.58738
C          C       0.47481   0.59182   0.36178  -0.06944
C          C       0.52375   0.58084   0.30924  -0.08048
C          C       0.61169   0.61513   0.30662  -0.17731
C          C       0.65236   0.66161   0.35678   0.18687
C          C       0.60390   0.67286   0.40946  -0.18019
C          C       0.51587   0.63842   0.41181  -0.07011
C          C       0.83149   0.66722   0.31633   0.18418
C          C       0.87799   0.61798   0.31896  -0.16228
C          C       0.95776   0.58449   0.27931  -0.07686
C          C       0.99303   0.59911   0.23621  -0.07361
C          C       0.94948   0.64989   0.23513  -0.07032
C          C       0.86998   0.68396   0.27507  -0.18000
C          C       0.73652   0.75853   0.38343   0.18660
C          C       0.83533   0.79226   0.39956  -0.19042
C          C       0.82956   0.85311   0.42815  -0.07073
C          C       0.72562   0.88181   0.44328  -0.07317
C          C       0.62745   0.84787   0.42795  -0.08597
C          C       0.63224   0.78727   0.39751  -0.18799
C          C       0.71793   0.94679   0.47314   0.57769
C          C       0.06759   0.55884   0.19037   0.56631
N          N       0.28282   0.77763   0.12582  -0.14117
N          N       0.25835   0.69682   0.85364  -0.14128
N          N       0.28283   0.22237   0.37418  -0.14153
N          N       0.25835   0.30317   0.64637  -0.14180
N          N       0.71717   0.22237   0.87419  -0.14149
N          N       0.74165   0.30317   0.14636  -0.14170
N          N       0.71717   0.77763   0.62582  -0.14127
N          N       0.74165   0.69682   0.35364  -0.14152
O          O       0.89430   0.51189   0.69301  -0.63417
O          O       0.91128   0.56608   0.64670  -0.50275
O          O       0.93677   0.56741   0.98784  -0.55038
O          O       0.95506   0.60652   0.92692  -0.56967
O          O       0.66570   0.56736   0.91161  -0.52479
O          O       0.65095   0.51148   0.81665  -0.63863
O          O       0.19390   0.97709   0.97710  -0.53602
O          O       0.37754   0.97066   0.99228  -0.73725
O          O       0.66638   0.85391   0.99860  -0.53797
O          O       0.59587   0.94125   0.05818  -0.68660
O          O       0.18491   0.87810   0.39592  -0.54019
O          O       0.36233   0.90675   0.39599  -0.69481
O          O       0.89430   0.48810   0.80700  -0.63490
O          O       0.91128   0.43391   0.85331  -0.50144
O          O       0.93677   0.43258   0.51216  -0.55170
O          O       0.95506   0.39348   0.57309  -0.56874
O          O       0.66570   0.43263   0.58839  -0.52560
O          O       0.65095   0.48851   0.68336  -0.63900
O          O       0.19390   0.02290   0.52291  -0.53550
O          O       0.37754   0.02934   0.50773  -0.73729
O          O       0.66639   0.14609   0.50140  -0.53817
O          O       0.59586   0.05875   0.44183  -0.68627
O          O       0.18491   0.12190   0.10408  -0.54049
O          O       0.36233   0.09324   0.10401  -0.69476
O          O       0.10570   0.48810   0.30700  -0.63482
O          O       0.08872   0.43391   0.35331  -0.50181
O          O       0.06323   0.43258   0.01216  -0.55138
O          O       0.04494   0.39348   0.07309  -0.56900
O          O       0.33430   0.43263   0.08839  -0.52536
O          O       0.34905   0.48851   0.18336  -0.63900
O          O       0.80609   0.02290   0.02291  -0.53573
O          O       0.62244   0.02934   0.00776  -0.73736
O          O       0.33362   0.14608   0.00140  -0.53806
O          O       0.40415   0.05874   0.94183  -0.68603
O          O       0.81510   0.12190   0.60409  -0.54065
O          O       0.63767   0.09325   0.60401  -0.69468
O          O       0.10570   0.51189   0.19300  -0.63433
O          O       0.08872   0.56608   0.14669  -0.50232
O          O       0.06323   0.56741   0.48784  -0.55055
O          O       0.04494   0.60652   0.42692  -0.56937
O          O       0.33430   0.56736   0.41161  -0.52507
O          O       0.34905   0.51148   0.31664  -0.63860
O          O       0.80609   0.97709   0.47709  -0.53602
O          O       0.62244   0.97066   0.49226  -0.73737
O          O       0.33361   0.85391   0.49860  -0.53815
O          O       0.40415   0.94125   0.55818  -0.68662
O          O       0.81510   0.87810   0.89592  -0.54006
O          O       0.63767   0.90675   0.89599  -0.69473

