data_crystal

_audit_creation_method 'AiiDA-DDEC plugin'

_cell_length_a         9.81396
_cell_length_b        16.63789
_cell_length_c        18.28920

_cell_angle_alpha     90.05834
_cell_angle_beta     93.90253
_cell_angle_gamma     89.93204

_symmetry_space_group_name_Hall 'P 1'
_symmetry_space_group_name_H-M  'P 1'

loop_
_symmetry_equiv_pos_as_xyz
 'x,y,z'

loop_
_atom_site_label
_atom_site_type_symbol
_atom_site_fract_x
_atom_site_fract_y
_atom_site_fract_z
_atom_site_charge
Cd         Cd      0.09926   0.59114   0.99577   0.92249
Cd         Cd      0.90084   0.59095   0.50413   0.92197
Cd         Cd      0.90073   0.40885   0.00423   0.92263
Cd         Cd      0.09915   0.40905   0.49587   0.92184
H          H       0.89473   0.65254   0.13808   0.11267
H          H       0.79446   0.76866   0.20086   0.11844
H          H       0.46329   0.77555   0.03336   0.13003
H          H       0.56468   0.65780   0.97249   0.09941
H          H       0.69220   0.91559   0.19965   0.09598
H          H       0.64962   0.83574   0.25942   0.07113
H          H       0.49542   0.01303   0.15615   0.09618
H          H       0.35336   0.94709   0.15646   0.09015
H          H       0.10756   0.27125   0.23195   0.11720
H          H       0.26006   0.16319   0.29330   0.13672
H          H       0.40823   0.52357   0.93555   0.11956
H          H       0.21994   0.74656   0.88774   0.12666
H          H       0.42687   0.72336   0.79307   0.12075
H          H       0.62844   0.61071   0.79836   0.11594
H          H       0.60596   0.53085   0.85911   0.12339
H          H       0.69947   0.50143   0.70602   0.11520
H          H       0.58810   0.42114   0.68261   0.11124
H          H       0.57943   0.30242   0.77736   0.11365
H          H       0.83896   0.50028   0.83289   0.13061
H          H       0.74966   0.26458   0.89928   0.13222
H          H       0.10728   0.65268   0.36185   0.11274
H          H       0.20667   0.77018   0.30119   0.11788
H          H       0.53669   0.77571   0.46948   0.12957
H          H       0.43558   0.65693   0.52857   0.09938
H          H       0.30681   0.91612   0.30164   0.09657
H          H       0.35151   0.83494   0.24372   0.07189
H          H       0.50525   0.01316   0.34617   0.09591
H          H       0.64710   0.94689   0.34515   0.08946
H          H       0.89042   0.27093   0.26843   0.11682
H          H       0.73806   0.16223   0.20768   0.13634
H          H       0.59214   0.52270   0.56500   0.11985
H          H       0.77953   0.74584   0.61283   0.12668
H          H       0.57171   0.72302   0.70704   0.12132
H          H       0.37122   0.61098   0.70200   0.11679
H          H       0.39287   0.53091   0.64120   0.12352
H          H       0.30009   0.50130   0.79448   0.11536
H          H       0.41193   0.42097   0.81736   0.11097
H          H       0.42039   0.30245   0.72257   0.11458
H          H       0.16074   0.50048   0.66716   0.13092
H          H       0.25075   0.26483   0.60027   0.13204
H          H       0.10526   0.34746   0.86192   0.11263
H          H       0.20553   0.23134   0.79914   0.11840
H          H       0.53671   0.22445   0.96665   0.12999
H          H       0.43531   0.34220   0.02751   0.09942
H          H       0.30779   0.08440   0.80036   0.09633
H          H       0.35037   0.16425   0.74059   0.07108
H          H       0.50457   0.98696   0.84385   0.09651
H          H       0.64663   0.05291   0.84354   0.08999
H          H       0.89243   0.72875   0.76806   0.11722
H          H       0.73994   0.83681   0.70671   0.13658
H          H       0.59176   0.47643   0.06445   0.11932
H          H       0.78005   0.25343   0.11227   0.12666
H          H       0.57312   0.27663   0.20693   0.12099
H          H       0.37155   0.38928   0.20164   0.11635
H          H       0.39403   0.46915   0.14089   0.12309
H          H       0.30052   0.49857   0.29398   0.11548
H          H       0.41189   0.57886   0.31740   0.11113
H          H       0.42056   0.69757   0.22264   0.11356
H          H       0.16103   0.49972   0.16711   0.13083
H          H       0.25033   0.73541   0.10073   0.13201
H          H       0.89271   0.34732   0.63815   0.11265
H          H       0.79332   0.22982   0.69881   0.11796
H          H       0.46330   0.22429   0.53052   0.12982
H          H       0.56441   0.34307   0.47144   0.09932
H          H       0.69318   0.08388   0.69836   0.09651
H          H       0.64848   0.16505   0.75628   0.07173
H          H       0.49474   0.98683   0.65383   0.09581
H          H       0.35289   0.05311   0.65486   0.08941
H          H       0.10957   0.72907   0.73158   0.11718
H          H       0.26193   0.83776   0.79232   0.13638
H          H       0.40785   0.47730   0.43501   0.11956
H          H       0.22046   0.25415   0.38717   0.12680
H          H       0.42828   0.27697   0.29296   0.12132
H          H       0.62877   0.38902   0.29801   0.11665
H          H       0.60712   0.46909   0.35881   0.12347
H          H       0.69990   0.49869   0.20552   0.11528
H          H       0.58806   0.57903   0.18264   0.11077
H          H       0.57960   0.69754   0.27744   0.11462
H          H       0.83925   0.49952   0.33284   0.13093
H          H       0.74924   0.73517   0.39974   0.13194
C          C       0.78022   0.56866   0.02099   0.55532
C          C       0.73336   0.64554   0.05290  -0.07578
C          C       0.79941   0.67925   0.11599  -0.05536
C          C       0.74291   0.74488   0.15107  -0.23904
C          C       0.61837   0.77720   0.12244   0.25076
C          C       0.55642   0.74744   0.05652  -0.20719
C          C       0.61341   0.68219   0.02263  -0.07018
C          C       0.60840   0.87815   0.21745  -0.03635
C          C       0.42528   0.98301   0.19174  -0.03206
C          C       0.28794   0.10198   0.18743   0.28926
C          C       0.34523   0.12236   0.10632  -0.29268
C          C       0.23187   0.17608   0.07982   0.10725
C          C       0.12479   0.21892   0.11996   0.02783
C          C       0.15074   0.22168   0.20237  -0.09963
C          C       0.23283   0.16611   0.23476  -0.20418
C          C       0.05503   0.29186   0.08451   0.54443
C          C       0.38059   0.57981   0.90881   0.08245
C          C       0.28868   0.69624   0.88251  -0.03156
C          C       0.39015   0.68521   0.83518  -0.12686
C          C       0.55318   0.56735   0.81610  -0.15232
C          C       0.62147   0.46232   0.72719  -0.13888
C          C       0.65668   0.33751   0.80717  -0.12596
C          C       0.79352   0.44087   0.83440   0.09484
C          C       0.74231   0.31919   0.86713  -0.03608
C          C       0.78778   0.08733   0.38587   0.03476
C          C       0.89690   0.13611   0.42430  -0.18288
C          C       0.22040   0.56851   0.47939   0.55602
C          C       0.26790   0.64512   0.44751  -0.07568
C          C       0.20217   0.67928   0.38457  -0.05623
C          C       0.25819   0.74566   0.35065  -0.23886
C          C       0.38198   0.77806   0.38010   0.25064
C          C       0.44402   0.74760   0.44571  -0.20541
C          C       0.38734   0.68169   0.47850  -0.07179
C          C       0.39150   0.87846   0.28501  -0.03871
C          C       0.57483   0.98299   0.31022  -0.03014
C          C       0.71198   0.10170   0.31392   0.29003
C          C       0.65599   0.12176   0.39525  -0.29057
C          C       0.76883   0.17586   0.42129   0.10729
C          C       0.87460   0.21881   0.38052   0.02607
C          C       0.84767   0.22150   0.29819  -0.09990
C          C       0.76570   0.16569   0.26616  -0.20275
C          C       0.94309   0.29213   0.41556   0.54690
C          C       0.61950   0.57904   0.59167   0.08242
C          C       0.71090   0.69556   0.61798  -0.03324
C          C       0.60900   0.68477   0.66506  -0.12607
C          C       0.44610   0.56730   0.68415  -0.15248
C          C       0.37811   0.46228   0.77301  -0.13796
C          C       0.34322   0.33758   0.69271  -0.12730
C          C       0.20618   0.44101   0.66565   0.09477
C          C       0.25786   0.31935   0.63262  -0.03636
C          C       0.21372   0.08754   0.11513   0.03622
C          C       0.10443   0.13589   0.07611  -0.18319
C          C       0.21977   0.43134   0.97902   0.55548
C          C       0.26663   0.35445   0.94710  -0.07569
C          C       0.20058   0.32075   0.88401  -0.05531
C          C       0.25708   0.25511   0.84893  -0.23880
C          C       0.38162   0.22280   0.87756   0.25055
C          C       0.44357   0.25255   0.94349  -0.20714
C          C       0.38658   0.31781   0.97738  -0.07027
C          C       0.39159   0.12185   0.78255  -0.03640
C          C       0.57471   0.01699   0.80826  -0.03198
C          C       0.71205   0.89801   0.81257   0.28933
C          C       0.65477   0.87764   0.89369  -0.29178
C          C       0.76812   0.82392   0.92018   0.10796
C          C       0.87520   0.78107   0.88004   0.02782
C          C       0.84925   0.77831   0.79763  -0.09973
C          C       0.76717   0.83389   0.76524  -0.20424
C          C       0.94496   0.70814   0.91549   0.54420
C          C       0.61940   0.42018   0.09119   0.08244
C          C       0.71132   0.30375   0.11750  -0.03125
C          C       0.60984   0.31479   0.16483  -0.12671
C          C       0.44681   0.43264   0.18390  -0.15232
C          C       0.37852   0.53767   0.27281  -0.13877
C          C       0.34331   0.66248   0.19283  -0.12639
C          C       0.20648   0.55913   0.16560   0.09510
C          C       0.25768   0.68080   0.13287  -0.03620
C          C       0.21221   0.91267   0.61413   0.03458
C          C       0.10309   0.86389   0.57570  -0.18283
C          C       0.77959   0.43148   0.52062   0.55600
C          C       0.73209   0.35488   0.55249  -0.07564
C          C       0.79782   0.32071   0.61543  -0.05647
C          C       0.74180   0.25434   0.64936  -0.23867
C          C       0.61801   0.22194   0.61990   0.25028
C          C       0.55597   0.25239   0.55429  -0.20547
C          C       0.61265   0.31831   0.52150  -0.07169
C          C       0.60849   0.12153   0.71499  -0.03871
C          C       0.42517   0.01700   0.68978  -0.03038
C          C       0.28801   0.89830   0.68608   0.29036
C          C       0.34400   0.87823   0.60475  -0.29141
C          C       0.23116   0.82413   0.57872   0.10734
C          C       0.12539   0.78118   0.61948   0.02629
C          C       0.15232   0.77850   0.70182  -0.09991
C          C       0.23429   0.83431   0.73384  -0.20268
C          C       0.05690   0.70786   0.58445   0.54644
C          C       0.38049   0.42095   0.40833   0.08233
C          C       0.28909   0.30443   0.38202  -0.03273
C          C       0.39099   0.31522   0.33495  -0.12649
C          C       0.55389   0.43269   0.31585  -0.15246
C          C       0.62188   0.53771   0.22700  -0.13800
C          C       0.65677   0.66241   0.30730  -0.12733
C          C       0.79381   0.55898   0.33435   0.09480
C          C       0.74213   0.68064   0.36738  -0.03659
C          C       0.78627   0.91246   0.88487   0.03531
C          C       0.89556   0.86411   0.92389  -0.18363
C          C       0.49985   0.93059   0.25109   0.05724
C          C       0.50014   0.06941   0.74891   0.05713
C          C       0.49966   0.51452   0.75011   0.09281
C          C       0.50033   0.48547   0.24990   0.09285
N          N       0.28363   0.63007   0.92794  -0.29701
N          N       0.44721   0.61063   0.85214   0.05481
N          N       0.68950   0.41500   0.78646   0.04562
N          N       0.82648   0.38409   0.88372  -0.28560
N          N       0.71656   0.62917   0.57272  -0.29632
N          N       0.55224   0.61018   0.64808   0.05454
N          N       0.31008   0.41504   0.71364   0.04696
N          N       0.17356   0.38430   0.61616  -0.28483
N          N       0.71636   0.36992   0.07206  -0.29762
N          N       0.55278   0.38937   0.14787   0.05500
N          N       0.31049   0.58500   0.21355   0.04585
N          N       0.17351   0.61591   0.11629  -0.28549
N          N       0.28343   0.37083   0.42729  -0.29591
N          N       0.44775   0.38981   0.35192   0.05451
N          N       0.68991   0.58495   0.28637   0.04703
N          N       0.82643   0.61570   0.38385  -0.28485
O          O       0.70499   0.53189   0.97380  -0.55836
O          O       0.89665   0.53913   0.04806  -0.59990
O          O       0.54523   0.83622   0.15539  -0.20677
O          O       0.35292   0.04399   0.22955  -0.19485
O          O       0.06807   0.35805   0.11854  -0.56670
O          O       0.98693   0.28160   0.02317  -0.54879
O          O       0.29561   0.53172   0.52653  -0.55790
O          O       0.10363   0.53940   0.45230  -0.60057
O          O       0.45412   0.83786   0.34804  -0.20437
O          O       0.64692   0.04359   0.27202  -0.19723
O          O       0.92668   0.35805   0.38159  -0.56697
O          O       0.01345   0.28222   0.47627  -0.54956
O          O       0.29500   0.46810   0.02621  -0.55857
O          O       0.10335   0.46087   0.95194  -0.59996
O          O       0.45476   0.16377   0.84461  -0.20671
O          O       0.64707   0.95600   0.77046  -0.19509
O          O       0.93192   0.64195   0.88147  -0.56643
O          O       0.01306   0.71840   0.97683  -0.54874
O          O       0.70438   0.46827   0.47347  -0.55807
O          O       0.89636   0.46060   0.54770  -0.60064
O          O       0.54587   0.16213   0.65196  -0.20400
O          O       0.35307   0.95640   0.72798  -0.19698
O          O       0.07332   0.64195   0.61841  -0.56644
O          O       0.98653   0.71777   0.52374  -0.54957

