data_crystal

_audit_creation_method 'AiiDA-DDEC plugin'

_cell_length_a        10.07400
_cell_length_b        13.06962
_cell_length_c        24.39417

_cell_angle_alpha     85.36512
_cell_angle_beta     84.88337
_cell_angle_gamma     80.97453

_symmetry_space_group_name_Hall 'P 1'
_symmetry_space_group_name_H-M  'P 1'

loop_
_symmetry_equiv_pos_as_xyz
 'x,y,z'

loop_
_atom_site_label
_atom_site_type_symbol
_atom_site_fract_x
_atom_site_fract_y
_atom_site_fract_z
_atom_site_charge
Cd         Cd      0.35803   0.54376   0.58390   1.03851
Cd         Cd      0.06514   0.41106   0.57714   1.10506
Cd         Cd      0.84975   0.67797   0.60507   0.98521
Cd         Cd      0.64199   0.45624   0.41610   1.03848
Cd         Cd      0.93487   0.58894   0.42286   1.10500
Cd         Cd      0.15027   0.32203   0.39493   0.98525
H          H       0.12740   0.04536   0.79963   0.11718
H          H       0.19762   0.05675   0.89346   0.11982
H          H       0.59905   0.90983   0.84270   0.11816
H          H       0.52895   0.90344   0.74765   0.11494
H          H       0.43379   0.76618   0.56683   0.11167
H          H       0.39153   0.93817   0.60772   0.13635
H          H       0.25544   0.78201   0.76056   0.13814
H          H       0.29623   0.61787   0.71234   0.09164
H          H       0.20471   0.32584   0.68690   0.09162
H          H       0.29621   0.16514   0.74028   0.13079
H          H       0.15186   0.99347   0.61865   0.13834
H          H       0.07449   0.16241   0.56916   0.11126
H          H       0.86406   0.09780   0.87241   0.11946
H          H       0.75507   0.04227   0.79437   0.11639
H          H       0.86301   0.30758   0.69291   0.13991
H          H       0.96866   0.36407   0.76958   0.13163
H          H       0.42639   0.37787   0.98244   0.10886
H          H       0.54027   0.42825   0.06061   0.12718
H          H       0.15655   0.48541   0.15505   0.13638
H          H       0.04238   0.43761   0.07685   0.12264
H          H       0.38126   0.41012   0.69676   0.09400
H          H       0.52125   0.25638   0.74270   0.13034
H          H       0.75896   0.21992   0.58696   0.15338
H          H       0.61253   0.37341   0.54818   0.11485
H          H       0.64683   0.89091   0.58766   0.10278
H          H       0.59063   0.06727   0.62352   0.13462
H          H       0.94957   0.99353   0.71325   0.12530
H          H       0.98696   0.81942   0.67452   0.11152
H          H       0.27749   0.22244   0.27719   0.07608
H          H       0.35824   0.28795   0.18348   0.12613
H          H       0.39441   0.57339   0.25429   0.11292
H          H       0.31875   0.49357   0.34552   0.10643
H          H       0.48721   0.81788   0.10647   0.07293
H          H       0.35821   0.66989   0.10458   0.13075
H          H       0.65769   0.48570   0.20264   0.13300
H          H       0.77330   0.63928   0.20027   0.09303
H          H       0.87261   0.95464   0.20037   0.11742
H          H       0.80239   0.94325   0.10654   0.11992
H          H       0.40096   0.09017   0.15730   0.11791
H          H       0.47106   0.09656   0.25235   0.11482
H          H       0.56622   0.23382   0.43317   0.11164
H          H       0.60848   0.06183   0.39228   0.13623
H          H       0.74457   0.21799   0.23944   0.13823
H          H       0.70379   0.38214   0.28766   0.09164
H          H       0.79531   0.67416   0.31310   0.09151
H          H       0.70380   0.83486   0.25972   0.13061
H          H       0.84815   0.00653   0.38135   0.13836
H          H       0.92552   0.83759   0.43084   0.11140
H          H       0.13595   0.90220   0.12759   0.11940
H          H       0.24494   0.95773   0.20564   0.11654
H          H       0.13701   0.69242   0.30709   0.13991
H          H       0.03135   0.63593   0.23042   0.13139
H          H       0.57362   0.62213   0.01756   0.10876
H          H       0.45974   0.57175   0.93939   0.12683
H          H       0.84347   0.51459   0.84495   0.13656
H          H       0.95764   0.56239   0.92315   0.12295
H          H       0.61875   0.58988   0.30324   0.09420
H          H       0.47877   0.74362   0.25730   0.13032
H          H       0.24105   0.78008   0.41304   0.15318
H          H       0.38749   0.62659   0.45182   0.11485
H          H       0.35319   0.10909   0.41234   0.10303
H          H       0.40938   0.93273   0.37648   0.13486
H          H       0.05044   0.00647   0.28675   0.12502
H          H       0.01306   0.18058   0.32548   0.11132
H          H       0.72252   0.77756   0.72281   0.07632
H          H       0.64178   0.71205   0.81653   0.12614
H          H       0.60561   0.42662   0.74571   0.11284
H          H       0.68127   0.50643   0.65448   0.10633
H          H       0.51280   0.18212   0.89353   0.07303
H          H       0.64180   0.33011   0.89542   0.13109
H          H       0.34232   0.51430   0.79736   0.13276
H          H       0.22672   0.36072   0.79973   0.09260
C          C       0.44373   0.98943   0.92839  -0.07040
C          C       0.48017   0.99621   0.97465  -0.04644
C          C       0.32379   0.97274   0.76799   0.16870
C          C       0.23020   0.01505   0.80928  -0.16314
C          C       0.26941   0.02120   0.86199  -0.09665
C          C       0.40296   0.98266   0.87507   0.11379
C          C       0.49585   0.93888   0.83315  -0.11969
C          C       0.45683   0.93484   0.78021  -0.17207
C          C       0.39276   0.77358   0.60937   0.12040
C          C       0.36976   0.86905   0.63249  -0.23308
C          C       0.31694   0.87478   0.68753   0.21141
C          C       0.29481   0.78201   0.71760  -0.22754
C          C       0.31935   0.69005   0.69096   0.11678
C          C       0.19708   0.25023   0.67301   0.10305
C          C       0.24797   0.15988   0.70273  -0.24303
C          C       0.23566   0.06344   0.68362   0.21180
C          C       0.16897   0.06471   0.63506  -0.24419
C          C       0.12413   0.15919   0.60730   0.11521
C          C       0.98538   0.26772   0.87060  -0.07866
C          C       0.04119   0.30024   0.90699  -0.03324
C          C       0.10390   0.33589   0.94637  -0.03877
C          C       0.16211   0.36852   0.98202  -0.07694
C          C       0.92422   0.23446   0.82675   0.10386
C          C       0.86432   0.14274   0.83289  -0.12667
C          C       0.80398   0.11131   0.78928  -0.17770
C          C       0.80319   0.17044   0.73863   0.16971
C          C       0.86253   0.26129   0.73207  -0.15813
C          C       0.92229   0.29348   0.77552  -0.10280
C          C       0.22684   0.40237   0.02467   0.10448
C          C       0.36785   0.40241   0.02006  -0.11025
C          C       0.43145   0.43039   0.06371  -0.17434
C          C       0.35576   0.45862   0.11272   0.16966
C          C       0.21514   0.46196   0.11722  -0.16545
C          C       0.15129   0.43432   0.07370  -0.10920
C          C       0.46610   0.36538   0.67434   0.09240
C          C       0.54282   0.27977   0.69940  -0.22763
C          C       0.64984   0.22552   0.66786   0.20337
C          C       0.67431   0.25757   0.61246  -0.19545
C          C       0.59348   0.34500   0.59075   0.13963
C          C       0.70998   0.91710   0.61605   0.09567
C          C       0.67944   0.01512   0.63600  -0.24779
C          C       0.76480   0.04557   0.67256   0.22595
C          C       0.87855   0.97366   0.68638  -0.25308
C          C       0.90058   0.87719   0.66455   0.09999
C          C       0.30718   0.29928   0.27061   0.09876
C          C       0.35151   0.33595   0.21827  -0.23853
C          C       0.38452   0.43709   0.21109   0.22307
C          C       0.37409   0.49411   0.25785  -0.23798
C          C       0.33055   0.45065   0.30864   0.12155
C          C       0.52259   0.74281   0.12733   0.09278
C          C       0.45060   0.66009   0.12568  -0.23540
C          C       0.49630   0.56565   0.15439   0.20591
C          C       0.61588   0.55790   0.18091  -0.22818
C          C       0.68029   0.64506   0.17971   0.09481
C          C       0.55628   0.01057   0.07160  -0.07047
C          C       0.51985   0.00379   0.02535  -0.04604
C          C       0.67622   0.02726   0.23201   0.16854
C          C       0.76981   0.98495   0.19072  -0.16275
C          C       0.73060   0.97880   0.13801  -0.09668
C          C       0.59705   0.01734   0.12493   0.11391
C          C       0.50416   0.06112   0.16685  -0.11997
C          C       0.54318   0.06516   0.21979  -0.17206
C          C       0.60725   0.22642   0.39064   0.12044
C          C       0.63025   0.13095   0.36752  -0.23333
C          C       0.68307   0.12522   0.31247   0.21157
C          C       0.70521   0.21799   0.28240  -0.22763
C          C       0.68066   0.30995   0.30904   0.11696
C          C       0.80293   0.74977   0.32699   0.10290
C          C       0.75205   0.84013   0.29727  -0.24329
C          C       0.76436   0.93656   0.31638   0.21193
C          C       0.83105   0.93529   0.36494  -0.24391
C          C       0.87589   0.84082   0.39270   0.11523
C          C       0.01463   0.73228   0.12940  -0.07848
C          C       0.95882   0.69976   0.09302  -0.03348
C          C       0.89611   0.66411   0.05363  -0.03880
C          C       0.83790   0.63148   0.01798  -0.07674
C          C       0.07579   0.76554   0.17325   0.10404
C          C       0.13569   0.85726   0.16711  -0.12682
C          C       0.19603   0.88869   0.21072  -0.17749
C          C       0.19683   0.82956   0.26137   0.16966
C          C       0.13748   0.73871   0.26793  -0.15783
C          C       0.07772   0.70652   0.22448  -0.10307
C          C       0.77318   0.59763   0.97534   0.10445
C          C       0.63217   0.59759   0.97994  -0.11036
C          C       0.56857   0.56961   0.93629  -0.17443
C          C       0.64426   0.54138   0.88728   0.16972
C          C       0.78488   0.53804   0.88278  -0.16559
C          C       0.84872   0.56568   0.92630  -0.10896
C          C       0.53392   0.63462   0.32566   0.09260
C          C       0.45720   0.72024   0.30060  -0.22775
C          C       0.35017   0.77448   0.33214   0.20353
C          C       0.32570   0.74244   0.38754  -0.19552
C          C       0.40653   0.65500   0.40925   0.13956
C          C       0.29003   0.08290   0.38395   0.09568
C          C       0.32057   0.98488   0.36400  -0.24761
C          C       0.23522   0.95443   0.32744   0.22617
C          C       0.12147   0.02634   0.31362  -0.25325
C          C       0.09944   0.12281   0.33545   0.09988
C          C       0.69283   0.70072   0.72939   0.09851
C          C       0.64851   0.66405   0.78173  -0.23822
C          C       0.61550   0.56291   0.78891   0.22281
C          C       0.62592   0.50589   0.74215  -0.23793
C          C       0.66946   0.54935   0.69137   0.12155
C          C       0.47742   0.25719   0.87267   0.09293
C          C       0.54941   0.33991   0.87432  -0.23531
C          C       0.50372   0.43435   0.84561   0.20590
C          C       0.38413   0.44210   0.81909  -0.22813
C          C       0.31973   0.35494   0.82029   0.09496
S          S       0.06304   0.52878   0.68250   1.37713
S          S       0.08693   0.67743   0.51709   1.39603
S          S       0.33299   0.38333   0.47656   1.39508
S          S       0.93698   0.47122   0.31750   1.37734
S          S       0.91308   0.32257   0.48291   1.39637
S          S       0.66702   0.61667   0.52344   1.39533
N          N       0.28655   0.97036   0.71284  -0.13732
N          N       0.36676   0.68505   0.63771  -0.26552
N          N       0.13780   0.25152   0.62555  -0.26901
N          N       0.73678   0.14265   0.69393  -0.13927
N          N       0.49128   0.39836   0.62117  -0.25020
N          N       0.81728   0.84795   0.63035  -0.24835
N          N       0.42208   0.48109   0.15865  -0.15051
N          N       0.29626   0.35453   0.31560  -0.28028
N          N       0.63446   0.73786   0.15439  -0.28921
N          N       0.71346   0.02964   0.28716  -0.13729
N          N       0.63325   0.31495   0.36229  -0.26551
N          N       0.86221   0.74848   0.37445  -0.26878
N          N       0.26324   0.85735   0.30607  -0.13951
N          N       0.50873   0.60164   0.37883  -0.24999
N          N       0.18274   0.15205   0.36965  -0.24836
N          N       0.57793   0.51892   0.84135  -0.15069
N          N       0.70376   0.64547   0.68440  -0.28010
N          N       0.36556   0.26215   0.84561  -0.28969
O          O       0.19650   0.49035   0.64975  -0.73269
O          O       0.96018   0.47035   0.66127  -0.68413
O          O       0.02226   0.64328   0.66944  -0.67531
O          O       0.07917   0.50406   0.74196  -0.63811
O          O       0.23215   0.66610   0.52816  -0.63389
O          O       0.01920   0.58623   0.54467  -0.72668
O          O       0.00825   0.77353   0.53849  -0.64308
O          O       0.08004   0.67672   0.45542  -0.66009
O          O       0.27304   0.41890   0.53337  -0.70946
O          O       0.26563   0.45149   0.43146  -0.65175
O          O       0.31246   0.27348   0.47181  -0.66276
O          O       0.47946   0.39318   0.47520  -0.66024
O          O       0.80351   0.50965   0.35025  -0.73311
O          O       0.03983   0.52965   0.33873  -0.68359
O          O       0.97776   0.35672   0.33056  -0.67543
O          O       0.92084   0.49594   0.25804  -0.63832
O          O       0.76786   0.33390   0.47184  -0.63450
O          O       0.98081   0.41377   0.45533  -0.72658
O          O       0.99177   0.22647   0.46152  -0.64298
O          O       0.91997   0.32328   0.54458  -0.66019
O          O       0.72697   0.58110   0.46663  -0.70953
O          O       0.73438   0.54851   0.56854  -0.65156
O          O       0.68755   0.72652   0.52819  -0.66265
O          O       0.52055   0.60682   0.52480  -0.66080

