data_crystal

_audit_creation_method 'AiiDA-DDEC plugin'

_cell_length_a        14.81723
_cell_length_b        15.83671
_cell_length_c        16.32392

_cell_angle_alpha     90.00047
_cell_angle_beta     101.83601
_cell_angle_gamma     90.00000

_symmetry_space_group_name_Hall 'P 1'
_symmetry_space_group_name_H-M  'P 1'

loop_
_symmetry_equiv_pos_as_xyz
 'x,y,z'

loop_
_atom_site_label
_atom_site_type_symbol
_atom_site_fract_x
_atom_site_fract_y
_atom_site_fract_z
_atom_site_charge
Mn         Mn      0.71569   0.89613   0.95349   0.96980
Mn         Mn      0.75586   0.63129   0.04599   0.97070
Mn         Mn      0.78431   0.39614   0.54650   0.96994
Mn         Mn      0.74413   0.13129   0.45401   0.97073
Mn         Mn      0.28431   0.10387   0.04650   0.96986
Mn         Mn      0.24414   0.36871   0.95401   0.97069
Mn         Mn      0.21569   0.60386   0.45350   0.96994
Mn         Mn      0.25587   0.86871   0.54598   0.97073
H          H       0.05563   0.47680   0.38262   0.09485
H          H       0.88362   0.47820   0.34687   0.12774
H          H       0.89370   0.72453   0.46194   0.13478
H          H       0.06513   0.71420   0.49124   0.10256
H          H       0.74581   0.59109   0.31101   0.10283
H          H       0.74100   0.56134   0.41536   0.13278
H          H       0.73270   0.68819   0.22950   0.13835
H          H       0.77472   0.95601   0.21856   0.11433
H          H       0.75703   0.83946   0.45358   0.13497
H          H       0.75352   0.06647   0.71243   0.11601
H          H       0.77242   0.33618   0.73711   0.13624
H          H       0.75787   0.18186   0.95267   0.13162
H          H       0.77735   0.46007   0.92512   0.12083
H          H       0.77052   0.43257   0.81768   0.10109
H          H       0.91749   0.45228   0.77578   0.12931
H          H       0.08942   0.42966   0.80669   0.08816
H          H       0.08700   0.34383   0.04610   0.09558
H          H       0.91611   0.36124   0.02440   0.13443
H          H       0.44437   0.97679   0.11738   0.09482
H          H       0.61637   0.97820   0.15313   0.12768
H          H       0.60630   0.22453   0.03806   0.13477
H          H       0.43487   0.21420   0.00876   0.10260
H          H       0.75419   0.09109   0.18899   0.10283
H          H       0.75900   0.06134   0.08463   0.13277
H          H       0.76730   0.18819   0.27049   0.13830
H          H       0.72528   0.45601   0.28144   0.11446
H          H       0.74297   0.33946   0.04642   0.13496
H          H       0.74648   0.56647   0.78757   0.11597
H          H       0.72758   0.83618   0.76288   0.13617
H          H       0.74213   0.68186   0.54733   0.13186
H          H       0.72265   0.96007   0.57488   0.12085
H          H       0.72948   0.93257   0.68232   0.10094
H          H       0.58251   0.95228   0.72422   0.12920
H          H       0.41058   0.92966   0.69330   0.08797
H          H       0.41300   0.84383   0.45390   0.09560
H          H       0.58389   0.86124   0.47560   0.13461
H          H       0.94437   0.52320   0.61738   0.09474
H          H       0.11638   0.52180   0.65313   0.12771
H          H       0.10630   0.27547   0.53806   0.13484
H          H       0.93487   0.28580   0.50876   0.10253
H          H       0.25419   0.40891   0.68899   0.10277
H          H       0.25900   0.43866   0.58464   0.13284
H          H       0.26730   0.31181   0.77049   0.13834
H          H       0.22528   0.04399   0.78144   0.11426
H          H       0.24297   0.16054   0.54642   0.13476
H          H       0.24648   0.93353   0.28757   0.11593
H          H       0.22758   0.66382   0.26289   0.13622
H          H       0.24213   0.81814   0.04733   0.13173
H          H       0.22265   0.53993   0.07488   0.12087
H          H       0.22948   0.56743   0.18232   0.10100
H          H       0.08251   0.54772   0.22422   0.12928
H          H       0.91058   0.57034   0.19330   0.08807
H          H       0.91301   0.65617   0.95390   0.09561
H          H       0.08390   0.63876   0.97560   0.13459
H          H       0.55564   0.02321   0.88262   0.09488
H          H       0.38363   0.02180   0.84687   0.12769
H          H       0.39370   0.77547   0.96194   0.13474
H          H       0.56513   0.78580   0.99123   0.10258
H          H       0.24581   0.90891   0.81101   0.10286
H          H       0.24101   0.93866   0.91536   0.13274
H          H       0.23270   0.81181   0.72950   0.13834
H          H       0.27472   0.54399   0.71856   0.11448
H          H       0.25703   0.66054   0.95358   0.13459
H          H       0.25352   0.43353   0.21243   0.11600
H          H       0.27242   0.16382   0.23711   0.13617
H          H       0.25787   0.31814   0.45267   0.13178
H          H       0.27735   0.03993   0.42512   0.12078
H          H       0.27052   0.06743   0.31768   0.10101
H          H       0.41749   0.04772   0.27578   0.12924
H          H       0.58942   0.07034   0.30670   0.08808
H          H       0.58700   0.15617   0.54610   0.09557
H          H       0.41611   0.13876   0.52440   0.13447
C          C       0.01693   0.53087   0.39813   0.08543
C          C       0.92115   0.53207   0.37854  -0.18221
C          C       0.87394   0.60302   0.39984   0.14250
C          C       0.92664   0.66878   0.44264  -0.18461
C          C       0.02227   0.66335   0.45930   0.09212
C          C       0.77015   0.60717   0.37743  -0.05624
C          C       0.74614   0.75555   0.34749   0.24211
C          C       0.74343   0.74856   0.26170  -0.21789
C          C       0.75295   0.82147   0.21533  -0.02980
C          C       0.76538   0.90035   0.25461  -0.13747
C          C       0.76498   0.90714   0.34005  -0.01686
C          C       0.75614   0.83457   0.38683  -0.20848
C          C       0.76886   0.99164   0.38099   0.54991
C          C       0.74273   0.81543   0.12257   0.59357
C          C       0.74371   0.03087   0.87315   0.55146
C          C       0.75389   0.11526   0.83628  -0.02315
C          C       0.75676   0.12230   0.75141  -0.13423
C          C       0.76431   0.20199   0.71689  -0.03386
C          C       0.76822   0.27510   0.76642  -0.21938
C          C       0.76454   0.26735   0.85103   0.24332
C          C       0.75872   0.18748   0.88639  -0.19326
C          C       0.76440   0.20999   0.62582   0.60109
C          C       0.79971   0.41453   0.88259  -0.05015
C          C       0.90340   0.40876   0.89806   0.13356
C          C       0.95326   0.42889   0.83663  -0.18214
C          C       0.04831   0.41614   0.85329   0.09182
C          C       0.04699   0.36751   0.98717   0.08788
C          C       0.95226   0.37820   0.97506  -0.17438
C          C       0.48307   0.03087   0.10187   0.08546
C          C       0.57885   0.03207   0.12146  -0.18218
C          C       0.62606   0.10302   0.10016   0.14253
C          C       0.57336   0.16878   0.05736  -0.18448
C          C       0.47773   0.16335   0.04070   0.09207
C          C       0.72984   0.10717   0.12257  -0.05637
C          C       0.75386   0.25555   0.15251   0.24210
C          C       0.75656   0.24856   0.23830  -0.21802
C          C       0.74705   0.32147   0.28467  -0.02975
C          C       0.73462   0.40035   0.24539  -0.13748
C          C       0.73502   0.40714   0.15995  -0.01694
C          C       0.74386   0.33457   0.11317  -0.20838
C          C       0.73114   0.49164   0.11901   0.55000
C          C       0.75726   0.31544   0.37743   0.59352
C          C       0.75629   0.53087   0.62684   0.55195
C          C       0.74612   0.61525   0.66371  -0.02350
C          C       0.74325   0.62230   0.74859  -0.13398
C          C       0.73569   0.70199   0.78310  -0.03402
C          C       0.73178   0.77510   0.73358  -0.21953
C          C       0.73546   0.76735   0.64897   0.24339
C          C       0.74128   0.68748   0.61360  -0.19328
C          C       0.73560   0.70999   0.87417   0.60149
C          C       0.70029   0.91453   0.61740  -0.05010
C          C       0.59660   0.90875   0.60193   0.13340
C          C       0.54674   0.92889   0.66336  -0.18213
C          C       0.45170   0.91614   0.64671   0.09186
C          C       0.45302   0.86750   0.51283   0.08819
C          C       0.54774   0.87820   0.52494  -0.17433
C          C       0.98308   0.46913   0.60187   0.08552
C          C       0.07885   0.46793   0.62146  -0.18219
C          C       0.12606   0.39698   0.60016   0.14255
C          C       0.07336   0.33122   0.55736  -0.18466
C          C       0.97773   0.33665   0.54069   0.09217
C          C       0.22985   0.39283   0.62257  -0.05636
C          C       0.25386   0.24445   0.65251   0.24192
C          C       0.25657   0.25144   0.73830  -0.21786
C          C       0.24705   0.17853   0.78467  -0.02996
C          C       0.23462   0.09965   0.74539  -0.13744
C          C       0.23502   0.09286   0.65994  -0.01699
C          C       0.24386   0.16543   0.61317  -0.20775
C          C       0.23114   0.00836   0.61901   0.54985
C          C       0.25727   0.18457   0.87743   0.59360
C          C       0.25629   0.96913   0.12685   0.55130
C          C       0.24611   0.88474   0.16372  -0.02317
C          C       0.24325   0.87770   0.24859  -0.13414
C          C       0.23569   0.79801   0.28310  -0.03400
C          C       0.23178   0.72490   0.23358  -0.21946
C          C       0.23546   0.73265   0.14897   0.24333
C          C       0.24128   0.81252   0.11361  -0.19329
C          C       0.23560   0.79001   0.37418   0.60147
C          C       0.20029   0.58547   0.11740  -0.05013
C          C       0.09660   0.59124   0.10193   0.13353
C          C       0.04674   0.57111   0.16336  -0.18222
C          C       0.95169   0.58386   0.14671   0.09185
C          C       0.95302   0.63249   0.01283   0.08793
C          C       0.04774   0.62180   0.02494  -0.17446
C          C       0.51693   0.96913   0.89813   0.08544
C          C       0.42116   0.96793   0.87854  -0.18214
C          C       0.37394   0.89698   0.89984   0.14257
C          C       0.42664   0.83122   0.94264  -0.18463
C          C       0.52227   0.83665   0.95930   0.09213
C          C       0.27016   0.89283   0.87743  -0.05636
C          C       0.24615   0.74445   0.84749   0.24213
C          C       0.24344   0.75144   0.76170  -0.21803
C          C       0.25295   0.67853   0.71533  -0.02972
C          C       0.26538   0.59965   0.75460  -0.13739
C          C       0.26498   0.59286   0.84005  -0.01711
C          C       0.25614   0.66543   0.88683  -0.20785
C          C       0.26886   0.50836   0.88099   0.55014
C          C       0.24274   0.68457   0.62257   0.59331
C          C       0.24371   0.46913   0.37316   0.55188
C          C       0.25389   0.38475   0.33628  -0.02343
C          C       0.25675   0.37770   0.25141  -0.13401
C          C       0.26431   0.29801   0.21690  -0.03406
C          C       0.26822   0.22490   0.26642  -0.21949
C          C       0.26454   0.23265   0.35103   0.24338
C          C       0.25872   0.31252   0.38639  -0.19332
C          C       0.26440   0.29001   0.12583   0.60138
C          C       0.29971   0.08547   0.38259  -0.05012
C          C       0.40340   0.09125   0.39806   0.13345
C          C       0.45326   0.07111   0.33663  -0.18212
C          C       0.54831   0.08386   0.35329   0.09179
C          C       0.54698   0.13250   0.48717   0.08807
C          C       0.45226   0.12180   0.47506  -0.17429
N          N       0.06768   0.59599   0.43681  -0.27364
N          N       0.09517   0.38527   0.92716  -0.26607
N          N       0.43232   0.09599   0.06319  -0.27362
N          N       0.40483   0.88527   0.57283  -0.26625
N          N       0.93232   0.40401   0.56319  -0.27371
N          N       0.90483   0.61473   0.07284  -0.26606
N          N       0.56768   0.90401   0.93681  -0.27360
N          N       0.59517   0.11473   0.42716  -0.26613
O          O       0.75440   0.88285   0.08285  -0.54729
O          O       0.71814   0.74460   0.08702  -0.58833
O          O       0.75876   0.05889   0.33625  -0.57038
O          O       0.77735   0.99637   0.46056  -0.54420
O          O       0.75431   0.02435   0.95330  -0.55464
O          O       0.72209   0.96645   0.82633  -0.56835
O          O       0.76364   0.14197   0.58305  -0.55336
O          O       0.76255   0.28379   0.59460  -0.58651
O          O       0.73585   0.68766   0.39795  -0.19666
O          O       0.76306   0.33467   0.90445  -0.19840
O          O       0.74560   0.38285   0.41715  -0.54712
O          O       0.78185   0.24460   0.41298  -0.58841
O          O       0.74124   0.55888   0.16376  -0.57049
O          O       0.72264   0.49637   0.03944  -0.54402
O          O       0.74569   0.52435   0.54668  -0.55453
O          O       0.77791   0.46646   0.67366  -0.56876
O          O       0.73636   0.64197   0.91695  -0.55357
O          O       0.73745   0.78378   0.90540  -0.58665
O          O       0.76415   0.18767   0.10205  -0.19667
O          O       0.73694   0.83466   0.59554  -0.19825
O          O       0.24560   0.11715   0.91715  -0.54736
O          O       0.28186   0.25540   0.91298  -0.58832
O          O       0.24124   0.94111   0.66375  -0.57050
O          O       0.22265   0.00363   0.53943  -0.54400
O          O       0.24569   0.97565   0.04669  -0.55447
O          O       0.27791   0.03355   0.17367  -0.56842
O          O       0.23636   0.85803   0.41695  -0.55356
O          O       0.23745   0.71621   0.40540  -0.58666
O          O       0.26415   0.31234   0.60205  -0.19644
O          O       0.23694   0.66533   0.09555  -0.19820
O          O       0.25440   0.61715   0.58285  -0.54697
O          O       0.21815   0.75540   0.58702  -0.58834
O          O       0.25876   0.44112   0.83624  -0.57044
O          O       0.27736   0.50363   0.96056  -0.54415
O          O       0.25431   0.47565   0.45331  -0.55465
O          O       0.22209   0.53354   0.32634  -0.56861
O          O       0.26364   0.35803   0.08305  -0.55343
O          O       0.26255   0.21622   0.09460  -0.58665
O          O       0.23585   0.81233   0.89795  -0.19685
O          O       0.26306   0.16534   0.40445  -0.19830

