data_crystal

_audit_creation_method 'AiiDA-DDEC plugin'

_cell_length_a        13.88746
_cell_length_b        17.77704
_cell_length_c        18.84239

_cell_angle_alpha     97.69013
_cell_angle_beta     89.98783
_cell_angle_gamma     89.99550

_symmetry_space_group_name_Hall 'P 1'
_symmetry_space_group_name_H-M  'P 1'

loop_
_symmetry_equiv_pos_as_xyz
 'x,y,z'

loop_
_atom_site_label
_atom_site_type_symbol
_atom_site_fract_x
_atom_site_fract_y
_atom_site_fract_z
_atom_site_charge
Mn         Mn      0.57000   0.38411   0.00524   0.98106
Mn         Mn      0.42501   0.13107   0.00519   0.97409
Mn         Mn      0.06992   0.61577   0.49464   0.98099
Mn         Mn      0.92504   0.86889   0.49481   0.97356
Mn         Mn      0.43000   0.61589   0.99476   0.98104
Mn         Mn      0.57499   0.86893   0.99481   0.97412
Mn         Mn      0.93008   0.38423   0.50536   0.98105
Mn         Mn      0.07496   0.13111   0.50519   0.97343
H          H       0.83667   0.28525   0.29946   0.10927
H          H       0.86988   0.10010   0.12860   0.11119
H          H       0.96338   0.02863   0.21052   0.10307
H          H       0.99385   0.08693   0.33680   0.10817
H          H       0.75804   0.41869   0.11380   0.08205
H          H       0.85926   0.35056   0.19474   0.11589
H          H       0.71174   0.14483   0.10852   0.11741
H          H       0.61954   0.22032   0.03089   0.09618
H          H       0.67124   0.48522   0.20970   0.10639
H          H       0.67011   0.68482   0.36766   0.10954
H          H       0.57706   0.75359   0.28329   0.10521
H          H       0.53942   0.68913   0.16041   0.10818
H          H       0.89935   0.39612   0.34341   0.08404
H          H       0.81442   0.47034   0.25945   0.11313
H          H       0.67173   0.59315   0.44284   0.11492
H          H       0.76587   0.51543   0.51884   0.07915
H          H       0.65822   0.96518   0.20101   0.10427
H          H       0.62479   0.14656   0.37541   0.11252
H          H       0.52999   0.21950   0.29596   0.10143
H          H       0.50127   0.16529   0.16837   0.10767
H          H       0.75342   0.82981   0.38092   0.08960
H          H       0.64978   0.89590   0.29970   0.11636
H          H       0.78004   0.10635   0.39440   0.12050
H          H       0.87801   0.03200   0.47024   0.09694
H          H       0.34453   0.22892   0.21418   0.10320
H          H       0.40622   0.40113   0.39187   0.10417
H          H       0.50224   0.47168   0.31093   0.10204
H          H       0.51479   0.42195   0.18043   0.11349
H          H       0.24589   0.09096   0.39046   0.09279
H          H       0.35091   0.15448   0.30873   0.11913
H          H       0.24913   0.36852   0.41832   0.10714
H          H       0.14694   0.29680   0.49308   0.09901
H          H       0.33671   0.71475   0.20044   0.10924
H          H       0.36991   0.89986   0.37133   0.11085
H          H       0.46341   0.97132   0.28939   0.10321
H          H       0.49388   0.91308   0.16310   0.10797
H          H       0.25803   0.58133   0.38619   0.08213
H          H       0.35928   0.64941   0.30523   0.11558
H          H       0.21176   0.85518   0.39147   0.11732
H          H       0.11955   0.77973   0.46913   0.09609
H          H       0.17113   0.51478   0.29050   0.10607
H          H       0.17018   0.31535   0.13239   0.10986
H          H       0.07703   0.24643   0.21664   0.10515
H          H       0.03938   0.31086   0.33966   0.10786
H          H       0.39941   0.60384   0.15646   0.08423
H          H       0.31446   0.52975   0.24053   0.11306
H          H       0.17171   0.40689   0.05722   0.11503
H          H       0.26590   0.48450   0.98115   0.07948
H          H       0.15823   0.03482   0.29900   0.10418
H          H       0.12479   0.85347   0.12460   0.11263
H          H       0.03000   0.78054   0.20407   0.10172
H          H       0.00125   0.83472   0.33167   0.10761
H          H       0.25342   0.17018   0.11907   0.08959
H          H       0.14976   0.10412   0.20033   0.11642
H          H       0.28005   0.89365   0.10559   0.12057
H          H       0.37803   0.96799   0.02973   0.09706
H          H       0.84455   0.77110   0.28582   0.10314
H          H       0.90624   0.59883   0.10811   0.10422
H          H       0.00226   0.52829   0.18905   0.10204
H          H       0.01475   0.57803   0.31953   0.11332
H          H       0.74586   0.90904   0.10954   0.09273
H          H       0.85090   0.84551   0.19122   0.11899
H          H       0.74913   0.63148   0.08168   0.10709
H          H       0.64693   0.70321   0.00695   0.09909
H          H       0.16333   0.71475   0.70053   0.10935
H          H       0.13012   0.89990   0.87140   0.11103
H          H       0.03662   0.97137   0.78947   0.10293
H          H       0.00615   0.91307   0.66320   0.10820
H          H       0.24196   0.58131   0.88619   0.08207
H          H       0.14074   0.64943   0.80526   0.11593
H          H       0.28826   0.85517   0.89148   0.11735
H          H       0.38046   0.77968   0.96911   0.09614
H          H       0.32876   0.51478   0.79030   0.10625
H          H       0.32989   0.31518   0.63234   0.10965
H          H       0.42294   0.24641   0.71670   0.10522
H          H       0.46059   0.31087   0.83959   0.10820
H          H       0.10066   0.60388   0.65658   0.08393
H          H       0.18558   0.52966   0.74055   0.11297
H          H       0.32827   0.40685   0.55716   0.11502
H          H       0.23413   0.48457   0.48116   0.07930
H          H       0.34178   0.03482   0.79899   0.10414
H          H       0.37522   0.85344   0.62459   0.11265
H          H       0.47001   0.78050   0.70403   0.10158
H          H       0.49873   0.83470   0.83163   0.10767
H          H       0.24658   0.17018   0.61907   0.08956
H          H       0.35022   0.10410   0.70030   0.11631
H          H       0.21996   0.89365   0.60559   0.12053
H          H       0.12199   0.96800   0.52976   0.09692
H          H       0.65547   0.77108   0.78581   0.10315
H          H       0.59378   0.59886   0.60812   0.10430
H          H       0.49776   0.52832   0.68907   0.10209
H          H       0.48521   0.57805   0.81957   0.11340
H          H       0.75412   0.90903   0.60954   0.09272
H          H       0.64909   0.84552   0.69126   0.11899
H          H       0.75088   0.63148   0.58168   0.10720
H          H       0.85306   0.70320   0.50692   0.09917
H          H       0.66329   0.28525   0.79956   0.10920
H          H       0.63009   0.10014   0.62867   0.11105
H          H       0.53659   0.02867   0.71060   0.10331
H          H       0.50612   0.08692   0.83690   0.10789
H          H       0.74197   0.41867   0.61381   0.08213
H          H       0.64073   0.35059   0.69477   0.11562
H          H       0.78824   0.14481   0.60853   0.11740
H          H       0.88045   0.22027   0.53086   0.09610
H          H       0.82887   0.48522   0.70950   0.10612
H          H       0.82982   0.68464   0.86761   0.10977
H          H       0.92297   0.75357   0.78335   0.10510
H          H       0.96062   0.68914   0.66034   0.10791
H          H       0.60059   0.39616   0.84354   0.08431
H          H       0.68555   0.47025   0.75947   0.11311
H          H       0.82829   0.59311   0.94277   0.11492
H          H       0.73410   0.51549   0.01884   0.07932
H          H       0.84178   0.96517   0.70100   0.10426
H          H       0.87521   0.14653   0.87539   0.11240
H          H       0.97000   0.21946   0.79593   0.10165
H          H      -0.00125   0.16528   0.66833   0.10762
H          H       0.74658   0.82982   0.88092   0.08976
H          H       0.85024   0.89587   0.79967   0.11655
H          H       0.71995   0.10635   0.89441   0.12054
H          H       0.62197   0.03201   0.97027   0.09689
H          H       0.15545   0.22890   0.71418   0.10329
H          H       0.09376   0.40117   0.89188   0.10407
H          H      -0.00226   0.47171   0.81095   0.10192
H          H       0.98525   0.42197   0.68047   0.11334
H          H       0.25414   0.09096   0.89046   0.09280
H          H       0.14910   0.15449   0.80878   0.11911
H          H       0.25088   0.36852   0.91832   0.10705
H          H       0.35307   0.29679   0.99304   0.09904
C          C       0.93298   0.22336   0.40225   0.58347
C          C       0.91734   0.18964   0.32538  -0.04575
C          C       0.86561   0.22979   0.27888  -0.14266
C          C       0.84833   0.19828   0.20776   0.05202
C          C       0.88300   0.12491   0.18374  -0.12698
C          C       0.93556   0.08494   0.22963  -0.08760
C          C       0.95307   0.11714   0.30022  -0.09907
C          C       0.75092   0.35777   0.11407   0.08206
C          C       0.80599   0.31979   0.15976  -0.19775
C          C       0.79382   0.24118   0.15925   0.10735
C          C       0.72642   0.20513   0.11079  -0.17550
C          C       0.67391   0.24734   0.06729   0.09269
C          C       0.57920   0.54423   0.10371   0.56931
C          C       0.60351   0.58351   0.17763  -0.04905
C          C       0.65367   0.54464   0.22592  -0.14420
C          C       0.67862   0.58028   0.29452   0.05032
C          C       0.65027   0.65613   0.31497  -0.12394
C          C       0.59946   0.69509   0.26728  -0.08586
C          C       0.57724   0.65934   0.19865  -0.09487
C          C       0.84793   0.44014   0.36309   0.09767
C          C       0.79940   0.48111   0.31650  -0.17898
C          C       0.73328   0.53774   0.34332   0.11133
C          C       0.72170   0.55034   0.41804  -0.18692
C          C       0.77359   0.50684   0.46090   0.09609
C          C       0.56677   0.03137   0.09961   0.58103
C          C       0.57852   0.06225   0.17730  -0.04457
C          C       0.63022   0.02068   0.22256  -0.14640
C          C       0.64799   0.05059   0.29394   0.04910
C          C       0.61187   0.12299   0.31993  -0.12392
C          C       0.55844   0.16386   0.27539  -0.08482
C          C       0.54185   0.13391   0.20412  -0.09734
C          C       0.75634   0.89113   0.38195   0.08304
C          C       0.69952   0.92821   0.33669  -0.19754
C          C       0.70546   0.00766   0.34051   0.10942
C          C       0.77007   0.04528   0.39034  -0.17773
C          C       0.82553   0.00395   0.43267   0.09180
C          C       0.43820   0.29223   0.11135   0.58203
C          C       0.43032   0.32248   0.18979  -0.03850
C          C       0.37811   0.28226   0.23603  -0.13743
C          C       0.36740   0.31026   0.30881   0.04882
C          C       0.41214   0.37949   0.33520  -0.13063
C          C       0.46604   0.41911   0.28972  -0.09215
C          C       0.47442   0.39132   0.21700  -0.09043
C          C       0.24933   0.15253   0.39463   0.08726
C          C       0.30723   0.18844   0.34901  -0.19135
C          C       0.30987   0.26825   0.35647   0.10629
C          C       0.25291   0.30695   0.41108  -0.18274
C          C       0.19527   0.26700   0.45336   0.08802
C          C       0.43298   0.77664   0.09759   0.58256
C          C       0.41738   0.81035   0.17449  -0.04609
C          C       0.36565   0.77022   0.22101  -0.14272
C          C       0.34834   0.80170   0.29215   0.05202
C          C       0.38303   0.87507   0.31618  -0.12673
C          C       0.43558   0.91502   0.27027  -0.08834
C          C       0.45310   0.88285   0.19966  -0.09841
C          C       0.25091   0.64224   0.38591   0.08187
C          C       0.30599   0.68021   0.34020  -0.19719
C          C       0.29383   0.75881   0.34069   0.10771
C          C       0.22642   0.79488   0.38919  -0.17554
C          C       0.17390   0.75268   0.43270   0.09266
C          C       0.07925   0.45596   0.39621   0.56967
C          C       0.10366   0.41642   0.32238  -0.04952
C          C       0.15375   0.45537   0.27411  -0.14357
C          C       0.17860   0.41984   0.20548   0.04983
C          C       0.15024   0.34400   0.18505  -0.12383
C          C       0.09944   0.30493   0.23269  -0.08565
C          C       0.07730   0.34060   0.30138  -0.09424
C          C       0.34795   0.55986   0.13685   0.09704
C          C       0.29940   0.51896   0.18349  -0.17827
C          C       0.23323   0.46238   0.15668   0.11105
C          C       0.22167   0.44970   0.08199  -0.18685
C          C       0.27359   0.49313   0.03909   0.09596
C          C       0.06679   0.96861   0.40042   0.58008
C          C       0.07850   0.93777   0.32274  -0.04487
C          C       0.13021   0.97934   0.27746  -0.14582
C          C       0.14799   0.94944   0.20607   0.04915
C          C       0.11188   0.87704   0.18009  -0.12396
C          C       0.05844   0.83618   0.22463  -0.08518
C          C       0.04184   0.86612   0.29592  -0.09721
C          C       0.25634   0.10887   0.11805   0.08294
C          C       0.19951   0.07180   0.16333  -0.19756
C          C       0.20546   0.99236   0.15950   0.10943
C          C       0.27007   0.95472   0.10965  -0.17777
C          C       0.32555   0.99603   0.06731   0.09184
C          C       0.93826   0.70774   0.38862   0.58184
C          C       0.93033   0.67751   0.31017  -0.03898
C          C       0.87811   0.71775   0.26396  -0.13736
C          C       0.86740   0.68973   0.19118   0.04856
C          C       0.91214   0.62050   0.16478  -0.13025
C          C       0.96604   0.58087   0.21025  -0.09199
C          C       0.97441   0.60866   0.28296  -0.09036
C          C       0.74930   0.84746   0.10537   0.08725
C          C       0.80722   0.81155   0.15097  -0.19145
C          C       0.80985   0.73174   0.14352   0.10650
C          C       0.75291   0.69304   0.08893  -0.18229
C          C       0.69526   0.73300   0.04666   0.08781
C          C       0.06703   0.77664   0.59775   0.58340
C          C       0.08266   0.81036   0.67462  -0.04573
C          C       0.13439   0.77021   0.72111  -0.14250
C          C       0.15167   0.80172   0.79223   0.05211
C          C       0.11700   0.87509   0.81626  -0.12719
C          C       0.06444   0.91506   0.77036  -0.08754
C          C       0.04694   0.88286   0.69978  -0.09911
C          C       0.24908   0.64223   0.88593   0.08216
C          C       0.19401   0.68021   0.84024  -0.19771
C          C       0.20618   0.75882   0.84075   0.10730
C          C       0.27359   0.79487   0.88921  -0.17548
C          C       0.32609   0.75266   0.93271   0.09254
C          C       0.42080   0.45577   0.89629   0.56954
C          C       0.39649   0.41648   0.82236  -0.04905
C          C       0.34633   0.45536   0.77407  -0.14415
C          C       0.32138   0.41972   0.70548   0.05014
C          C       0.34973   0.34387   0.68503  -0.12376
C          C       0.40054   0.30491   0.73272  -0.08558
C          C       0.42277   0.34066   0.80135  -0.09507
C          C       0.15207   0.55986   0.63691   0.09767
C          C       0.20060   0.51889   0.68350  -0.17897
C          C       0.26672   0.46225   0.65667   0.11137
C          C       0.27830   0.44965   0.58196  -0.18689
C          C       0.22641   0.49315   0.53910   0.09616
C          C       0.43323   0.96863   0.90038   0.58107
C          C       0.42148   0.93775   0.82270  -0.04467
C          C       0.36978   0.97932   0.77743  -0.14631
C          C       0.35201   0.94941   0.70606   0.04891
C          C       0.38813   0.87701   0.68007  -0.12382
C          C       0.44156   0.83614   0.72460  -0.08474
C          C       0.45815   0.86609   0.79588  -0.09739
C          C       0.24366   0.10887   0.61805   0.08279
C          C       0.30048   0.07179   0.66331  -0.19758
C          C       0.29455   0.99234   0.65949   0.10942
C          C       0.22994   0.95472   0.60965  -0.17754
C          C       0.17447   0.99604   0.56733   0.09188
C          C       0.56180   0.70776   0.88865   0.58204
C          C       0.56968   0.67751   0.81021  -0.03831
C          C       0.62189   0.71773   0.76397  -0.13737
C          C       0.63260   0.68973   0.69119   0.04870
C          C       0.58786   0.62051   0.66480  -0.13062
C          C       0.53397   0.58089   0.71028  -0.09194
C          C       0.52558   0.60867   0.78300  -0.09062
C          C       0.75068   0.84746   0.60537   0.08730
C          C       0.69277   0.81156   0.65099  -0.19154
C          C       0.69013   0.73174   0.64353   0.10635
C          C       0.74709   0.69305   0.58892  -0.18273
C          C       0.80473   0.73300   0.54664   0.08816
C          C       0.56702   0.22336   0.90240   0.58266
C          C       0.58262   0.18965   0.82550  -0.04627
C          C       0.63435   0.22978   0.77898  -0.14273
C          C       0.65166   0.19830   0.70785   0.05207
C          C       0.61698   0.12493   0.68382  -0.12687
C          C       0.56443   0.08498   0.72973  -0.08817
C          C       0.54690   0.11714   0.80033  -0.09847
C          C       0.74909   0.35776   0.61409   0.08169
C          C       0.69401   0.31979   0.65979  -0.19725
C          C       0.70617   0.24119   0.65930   0.10763
C          C       0.77358   0.20512   0.61081  -0.17553
C          C       0.82610   0.24732   0.56729   0.09292
C          C       0.92075   0.54404   0.60378   0.56960
C          C       0.89634   0.58357   0.67762  -0.04958
C          C       0.84626   0.54463   0.72589  -0.14333
C          C       0.82140   0.58016   0.79452   0.04975
C          C       0.84977   0.65599   0.81495  -0.12409
C          C       0.90056   0.69507   0.76731  -0.08577
C          C       0.92270   0.65940   0.69861  -0.09409
C          C       0.65205   0.44014   0.86315   0.09707
C          C       0.70061   0.48104   0.81651  -0.17818
C          C       0.76677   0.53762   0.84331   0.11113
C          C       0.77833   0.55030   0.91801  -0.18682
C          C       0.72641   0.50687   0.96091   0.09599
C          C       0.93322   0.03139   0.59958   0.58003
C          C       0.92150   0.06223   0.67725  -0.04502
C          C       0.86980   0.02066   0.72254  -0.14577
C          C       0.85201   0.05056   0.79392   0.04911
C          C       0.88812   0.12295   0.81990  -0.12399
C          C       0.94156   0.16382   0.77536  -0.08517
C          C       0.95816   0.13388   0.70408  -0.09702
C          C       0.74366   0.89112   0.88195   0.08279
C          C       0.80049   0.92819   0.83667  -0.19746
C          C       0.79454   0.00764   0.84050   0.10945
C          C       0.72993   0.04528   0.89035  -0.17778
C          C       0.67445   0.00397   0.93269   0.09176
C          C       0.06174   0.29225   0.61137   0.58171
C          C       0.06968   0.32249   0.68983  -0.03890
C          C       0.12189   0.28225   0.73604  -0.13743
C          C       0.13260   0.31026   0.80882   0.04877
C          C       0.08786   0.37950   0.83522  -0.13040
C          C       0.03396   0.41913   0.78975  -0.09201
C          C       0.02559   0.39134   0.71704  -0.09043
C          C       0.25070   0.15253   0.89463   0.08742
C          C       0.19278   0.18844   0.84903  -0.19147
C          C       0.19015   0.26826   0.85648   0.10642
C          C       0.24709   0.30695   0.91107  -0.18234
C          C       0.30474   0.26700   0.95334   0.08769
N          N       0.68495   0.32298   0.06836  -0.24985
N          N       0.83575   0.45185   0.43478  -0.23905
N          N       0.81914   0.92772   0.42926  -0.25759
N          N       0.19270   0.19035   0.44580  -0.25536
N          N       0.18492   0.67704   0.43163  -0.24961
N          N       0.33574   0.54812   0.06517  -0.23893
N          N       0.31914   0.07227   0.07073  -0.25763
N          N       0.69267   0.80965   0.05422  -0.25562
N          N       0.31506   0.67702   0.93164  -0.24979
N          N       0.16425   0.54815   0.56521  -0.23915
N          N       0.18086   0.07228   0.57074  -0.25738
N          N       0.80730   0.80964   0.55420  -0.25540
N          N       0.81508   0.32295   0.56837  -0.24967
N          N       0.66426   0.45188   0.93483  -0.23908
N          N       0.68086   0.92773   0.92927  -0.25760
N          N       0.30733   0.19035   0.94577  -0.25569
O          O       0.97106   0.18099   0.44386  -0.55835
O          O       0.90484   0.29137   0.42080  -0.57029
O          O       0.54786   0.58388   0.05755  -0.55563
O          O       0.59532   0.47289   0.09269  -0.56745
O          O       0.53822   0.07649   0.05688  -0.55722
O          O       0.59049   0.96210   0.08172  -0.56795
O          O       0.46595   0.33720   0.06842  -0.55284
O          O       0.41351   0.22314   0.09304  -0.57276
O          O       0.47091   0.81891   0.05584  -0.55687
O          O       0.40483   0.70862   0.07917  -0.57000
O          O       0.04793   0.41644   0.44251  -0.55654
O          O       0.09525   0.52735   0.40711  -0.56694
O          O       0.03823   0.92346   0.44315  -0.55675
O          O       0.09052   0.03789   0.41837  -0.56750
O          O       0.96605   0.66281   0.43151  -0.55217
O          O       0.91352   0.77683   0.40694  -0.57259
O          O       0.02894   0.81901   0.55614  -0.55834
O          O       0.09516   0.70863   0.57920  -0.57019
O          O       0.45214   0.41612   0.94245  -0.55571
O          O       0.40469   0.52711   0.90731  -0.56772
O          O       0.46178   0.92351   0.94312  -0.55727
O          O       0.40951   0.03790   0.91827  -0.56796
O          O       0.53406   0.66280   0.93158  -0.55285
O          O       0.58649   0.77686   0.90695  -0.57293
O          O       0.52909   0.18108   0.94416  -0.55685
O          O       0.59518   0.29137   0.92083  -0.57001
O          O       0.95207   0.58356   0.55749  -0.55645
O          O       0.90475   0.47265   0.59289  -0.56689
O          O       0.96177   0.07654   0.55684  -0.55672
O          O       0.90948   0.96211   0.58162  -0.56739
O          O       0.03396   0.33718   0.56849  -0.55208
O          O       0.08648   0.22317   0.59305  -0.57241

