data_crystal

_audit_creation_method 'AiiDA-DDEC plugin'

_cell_length_a        13.18253
_cell_length_b        14.43444
_cell_length_c        16.30863

_cell_angle_alpha     90.00000
_cell_angle_beta     90.00000
_cell_angle_gamma     90.00000

_symmetry_space_group_name_Hall 'P 1'
_symmetry_space_group_name_H-M  'P 1'

loop_
_symmetry_equiv_pos_as_xyz
 'x,y,z'

loop_
_atom_site_label
_atom_site_type_symbol
_atom_site_fract_x
_atom_site_fract_y
_atom_site_fract_z
_atom_site_charge
Cu         Cu      0.21235   0.70502   0.16203   0.81764
Cu         Cu      0.94038   0.96190   0.08395   0.81597
Cu         Cu      0.78764   0.20501   0.33797   0.81772
Cu         Cu      0.28765   0.29499   0.66203   0.81773
Cu         Cu      0.55962   0.03811   0.58395   0.81602
Cu         Cu      0.71235   0.79499   0.83797   0.81775
Cu         Cu      0.05962   0.46190   0.41605   0.81591
Cu         Cu      0.44038   0.53811   0.91605   0.81581
H          H       0.51616   0.73356   0.54235   0.13501
H          H       0.91546   0.04430   0.73547   0.14224
H          H       0.43146   0.59987   0.48569   0.13725
H          H       0.42758   0.18572   0.08328   0.10071
H          H       0.57242   0.68572   0.41672   0.10061
H          H       0.99227   0.66016   0.97296   0.14255
H          H       0.86386   0.95444   0.91278   0.27730
H          H       0.01616   0.76645   0.45765   0.13496
H          H       0.43849   0.42292   0.53075   0.13403
H          H       0.00773   0.16016   0.52703   0.14236
H          H       0.41546   0.45570   0.26453   0.14224
H          H       0.22054   0.61780   0.33129   0.27326
H          H       0.89568   0.27681   0.81770   0.10043
H          H       0.20670   0.52485   0.72294   0.15148
H          H       0.07908   0.58409   0.92183   0.12582
H          H       0.39568   0.22319   0.18230   0.10028
H          H       0.82814   0.82529   0.49323   0.14126
H          H       0.59509   0.09092   0.87405   0.12891
H          H       0.50773   0.33984   0.47297   0.14232
H          H       0.90491   0.90908   0.37405   0.12908
H          H       0.13613   0.45444   0.58722   0.27728
H          H       0.94900   0.65717   0.81404   0.14065
H          H       0.51675   0.17927   0.82982   0.14155
H          H       0.06151   0.57708   0.03075   0.13399
H          H       0.54237   0.75472   0.18852   0.13850
H          H       0.93146   0.90014   0.51431   0.13738
H          H       0.45145   0.02537   0.79080   0.09474
H          H       0.72054   0.88221   0.66871   0.27326
H          H       0.27946   0.38221   0.83128   0.27319
H          H       0.47369   0.33090   0.89126   0.15011
H          H       0.45763   0.25472   0.31148   0.13851
H          H       0.10432   0.77682   0.68230   0.10028
H          H       0.09509   0.40908   0.12595   0.12909
H          H       0.33017   0.36166   0.25265   0.14132
H          H       0.40491   0.59092   0.62595   0.12907
H          H       0.05100   0.15717   0.68595   0.14067
H          H       0.29330   0.47516   0.22294   0.15153
H          H       0.07242   0.81429   0.58328   0.10083
H          H       0.54854   0.52537   0.70920   0.09470
H          H       0.52631   0.83090   0.60873   0.14996
H          H       0.92092   0.08408   0.57816   0.12573
H          H       0.36277   0.65393   0.71354   0.13279
H          H       0.19437   0.43637   0.96382   0.15595
H          H       0.30563   0.56363   0.46382   0.15591
H          H       0.91387   0.68775   0.44925   0.14267
H          H       0.66983   0.86166   0.24735   0.14128
H          H       0.06836   0.26094   0.62813   0.14935
H          H       0.48324   0.67927   0.67017   0.14158
H          H       0.01675   0.32074   0.17017   0.14152
H          H       0.32814   0.67471   0.50677   0.14127
H          H       0.48384   0.23356   0.95765   0.13502
H          H       0.08454   0.54430   0.76453   0.14220
H          H       0.13723   0.34608   0.21354   0.13274
H          H       0.79330   0.02485   0.77706   0.15159
H          H       0.65405   0.75650   0.06080   0.08785
H          H       0.58454   0.95570   0.23547   0.14230
H          H       0.63722   0.15393   0.78646   0.13277
H          H       0.60432   0.72319   0.31770   0.10028
H          H       0.16983   0.63835   0.75265   0.14138
H          H       0.41387   0.81225   0.55075   0.14277
H          H       0.04237   0.74528   0.81148   0.13854
H          H       0.57908   0.91592   0.07817   0.12585
H          H       0.56836   0.23907   0.37187   0.14923
H          H       0.95763   0.24528   0.68852   0.13856
H          H       0.70670   0.97516   0.27706   0.15156
H          H       0.67186   0.17471   0.99323   0.14130
H          H       0.95146   0.47463   0.20920   0.09478
H          H       0.63613   0.04556   0.41278   0.27737
H          H       0.43164   0.73907   0.12813   0.14930
H          H       0.93164   0.76094   0.87187   0.14924
H          H       0.55100   0.34284   0.31404   0.14071
H          H       0.58612   0.31225   0.94925   0.14261
H          H       0.56151   0.92292   0.96924   0.13412
H          H       0.36386   0.54556   0.08722   0.27738
H          H       0.97369   0.16910   0.10873   0.14996
H          H       0.02631   0.66910   0.39126   0.14996
H          H       0.44900   0.84284   0.18595   0.14077
H          H       0.17186   0.32529   0.00677   0.14121
H          H       0.83017   0.13834   0.74735   0.14139
H          H       0.98324   0.82074   0.32982   0.14148
H          H       0.86277   0.84608   0.28646   0.13276
H          H       0.08612   0.18775   0.05075   0.14266
H          H       0.84595   0.24351   0.56080   0.08787
H          H       0.04854   0.97463   0.29080   0.09472
H          H       0.15405   0.74351   0.93920   0.08797
H          H       0.80563   0.93637   0.53618   0.15601
H          H       0.49227   0.83984   0.02703   0.14235
H          H       0.34595   0.25650   0.43920   0.08790
H          H       0.92758   0.31428   0.91672   0.10072
H          H       0.42092   0.41592   0.42183   0.12583
H          H       0.69437   0.06363   0.03618   0.15598
H          H       0.77946   0.11780   0.16871   0.27324
H          H       0.98384   0.26645   0.04235   0.13500
H          H       0.06854   0.40013   0.98569   0.13738
H          H       0.56854   0.09987   0.01431   0.13733
H          H       0.93849   0.07708   0.46925   0.13411
C          C       0.42619   0.18501   0.57863   0.35872
C          C       0.40896   0.46892   0.75305   0.57749
C          C       0.15048   0.69545   0.99150   0.07963
C          C       0.43487   0.37594   0.47792  -0.40946
C          C       0.06295   0.66815   0.60007  -0.13681
C          C       0.03965   0.23259   0.68609  -0.44357
C          C       0.44559   0.70802   0.33741  -0.13353
C          C       0.47961   0.55178   0.73964   0.08172
C          C       0.60341   0.90985   0.36021   0.19497
C          C       0.74775   0.14449   0.50173   0.58120
C          C       0.24775   0.35551   0.49827   0.58133
C          C       0.04991   0.76574   0.63207  -0.15317
C          C       0.85741   0.87676   0.53691  -0.43779
C          C       0.64259   0.12324   0.03691  -0.43782
C          C       0.10341   0.59016   0.63979   0.19497
C          C       0.40865   0.72326   0.25718   0.20474
C          C       0.00292   0.19301   0.04947  -0.44258
C          C       0.86679   0.83790   0.62134   0.19493
C          C       0.09135   0.27674   0.75718   0.20490
C          C       0.95899   0.13842   0.98065   0.20409
C          C       0.57074   0.12363   0.81671  -0.41263
C          C       0.56295   0.83186   0.39993  -0.13692
C          C       0.49708   0.80699   0.54947  -0.44279
C          C       0.89659   0.09016   0.86021   0.19491
C          C       0.59103   0.96892   0.74695   0.57767
C          C       0.85687   0.07393   0.77570  -0.43517
C          C       0.45899   0.36158   0.01934   0.20427
C          C       0.06513   0.62406   0.97792  -0.40971
C          C       0.56513   0.87594   0.02208  -0.40949
C          C       0.35687   0.42607   0.22430  -0.43515
C          C       0.92984   0.34433   0.33201   0.36366
C          C       0.84952   0.19545   0.50849   0.07962
C          C       0.93487   0.12406   0.52208  -0.40956
C          C       0.07381   0.81499   0.07864   0.35879
C          C       0.09103   0.53108   0.25305   0.57751
C          C       0.93704   0.16815   0.89993  -0.13664
C          C       0.05440   0.29199   0.83741  -0.13374
C          C       0.65048   0.80455   0.00849   0.07946
C          C       0.39659   0.40985   0.13979   0.19503
C          C       0.90865   0.77674   0.74282   0.20479
C          C       0.50292   0.30699   0.95053  -0.44264
C          C       0.54991   0.73427   0.36792  -0.15306
C          C       0.35741   0.62324   0.46309  -0.43763
C          C       0.07074   0.37637   0.18329  -0.41274
C          C       0.53965   0.26741   0.31391  -0.44346
C          C       0.92619   0.31499   0.42136   0.35878
C          C       0.52039   0.05178   0.76035   0.08163
C          C       0.64313   0.92607   0.27570  -0.43512
C          C       0.34952   0.30455   0.49151   0.07957
C          C       0.57381   0.68502   0.92136   0.35873
C          C       0.59135   0.22326   0.24282   0.20480
C          C       0.13321   0.33790   0.87866   0.19469
C          C       0.57016   0.65567   0.83201   0.36367
C          C       0.54101   0.86158   0.48065   0.20435
C          C       0.94559   0.79199   0.66258  -0.13383
C          C       0.95009   0.26574   0.86792  -0.15325
C          C       0.14313   0.57394   0.72429  -0.43526
C          C       0.97961   0.94822   0.26036   0.08185
C          C       0.42926   0.62364   0.68329  -0.41269
C          C       0.43705   0.33186   0.10007  -0.13690
C          C       0.02039   0.44822   0.23964   0.08168
C          C       0.92926   0.87637   0.31671  -0.41281
C          C       0.07016   0.84433   0.16799   0.36362
C          C       0.45009   0.23427   0.13208  -0.15308
C          C       0.90896   0.03108   0.24695   0.57749
C          C       0.96034   0.73259   0.81390  -0.44357
C          C       0.36679   0.66211   0.37866   0.19453
C          C       0.04101   0.63842   0.51934   0.20439
C          C       0.99708   0.69301   0.45053  -0.44243
C          C       0.46035   0.76741   0.18609  -0.44356
C          C       0.14259   0.37676   0.96309  -0.43782
C          C       0.25225   0.64450  -0.00173   0.58119
C          C       0.42984   0.15567   0.66799   0.36369
C          C       0.63321   0.16211   0.12134   0.19477
C          C       0.75225   0.85551   0.00173   0.58111
C          C       0.55440   0.20802   0.16258  -0.13367
N          N       0.50357   0.58968   0.81943  -0.45439
N          N       0.56643   0.95155   0.48938  -0.27798
N          N       0.13496   0.74435   0.06778  -0.43734
N          N       0.43357   0.45155   0.01062  -0.27795
N          N       0.39733   0.47982   0.08427  -0.12994
N          N       0.60266   0.97982   0.41573  -0.12975
N          N       0.21103   0.34584   0.82480  -0.13251
N          N       0.68659   0.18986   0.24951  -0.26738
N          N       0.31341   0.68986   0.25049  -0.26727
N          N       0.06642   0.54846   0.51062  -0.27797
N          N       0.93357   0.04845   0.98937  -0.27808
N          N       0.99643   0.41032   0.31943  -0.45439
N          N       0.36504   0.25565   0.56778  -0.43731
N          N       0.18659   0.31014   0.75049  -0.26726
N          N       0.86504   0.24435   0.43222  -0.43733
N          N       0.89733   0.02019   0.91573  -0.12966
N          N       0.00357   0.91032   0.18057  -0.45436
N          N       0.49643   0.08968   0.68056  -0.45433
N          N       0.28897   0.65416   0.32481  -0.13248
N          N       0.63496   0.75566   0.93222  -0.43734
N          N       0.10266   0.52019   0.58427  -0.12989
N          N       0.78897   0.84584   0.67519  -0.13251
N          N       0.71103   0.15416   0.17519  -0.13252
N          N       0.81341   0.81014   0.74951  -0.26735
O          O       0.88373   0.05086   0.17157  -0.55139
O          O       0.98028   0.35756   0.47496  -0.49484
O          O       0.79373   0.85878   0.92929  -0.55673
O          O       0.28773   0.60615   0.93566  -0.56328
O          O       0.12707   0.80446   0.22128  -0.50317
O          O       0.21227   0.39385   0.43566  -0.56337
O          O       0.37815   0.42559   0.69152  -0.56653
O          O       0.61627   0.94915   0.67157  -0.55137
O          O       0.12185   0.57441   0.19152  -0.56658
O          O       0.29373   0.64123   0.07071  -0.55690
O          O       0.78773   0.89385   0.06434  -0.56339
O          O       0.11627   0.55086   0.32843  -0.55146
O          O       0.38373   0.44915   0.82843  -0.55155
O          O       0.20627   0.35878   0.57071  -0.55690
O          O       0.48028   0.14245   0.52504  -0.49470
O          O       0.51972   0.64245   0.97496  -0.49485
O          O       0.87815   0.07441   0.30847  -0.56663
O          O       0.62707   0.69554   0.77871  -0.50307
O          O       0.01972   0.85756   0.02504  -0.49479
O          O       0.87293   0.30446   0.27871  -0.50309
O          O       0.62185   0.92559   0.80847  -0.56689
O          O       0.37293   0.19554   0.72128  -0.50327
O          O       0.71227   0.10615   0.56434  -0.56348
O          O       0.70627   0.14123   0.42929  -0.55673

