data_crystal

_audit_creation_method 'AiiDA-DDEC plugin'

_cell_length_a        16.62494
_cell_length_b        17.51831
_cell_length_c        17.87008

_cell_angle_alpha     90.00627
_cell_angle_beta     90.00000
_cell_angle_gamma     90.00000

_symmetry_space_group_name_Hall 'P 1'
_symmetry_space_group_name_H-M  'P 1'

loop_
_symmetry_equiv_pos_as_xyz
 'x,y,z'

loop_
_atom_site_label
_atom_site_type_symbol
_atom_site_fract_x
_atom_site_fract_y
_atom_site_fract_z
_atom_site_charge
Zn         Zn      0.27483   0.89577   0.61870   0.77427
Zn         Zn      0.77483   0.60422   0.38130   0.77421
Zn         Zn      0.77483   0.39582   0.88126   0.77410
Zn         Zn      0.27483   0.10418   0.11874   0.77417
Zn         Zn      0.22517   0.60418   0.11874   0.77423
Zn         Zn      0.72517   0.89582   0.88126   0.77421
Zn         Zn      0.72517   0.10423   0.38130   0.77430
Zn         Zn      0.22517   0.39577   0.61870   0.77430
H          H       0.27559   0.08120   0.59057   0.29708
H          H       0.14288   0.02226   0.18383   0.27440
H          H       0.21813   0.84885   0.44826   0.14732
H          H       0.32418   0.84931   0.45877   0.15122
H          H       0.27975   0.88037   0.37276   0.14714
H          H       0.25031   0.20054   0.51752   0.15640
H          H       0.20077   0.18535   0.43032   0.15790
H          H       0.30711   0.19553   0.43327   0.14696
H          H       0.09210   0.90937   0.30655   0.15450
H          H       0.04564  -0.00084   0.32440   0.15568
H          H       0.10758   0.95677   0.39330   0.14791
H          H       0.41232   0.08699   0.24816   0.14911
H          H       0.39810   0.08831   0.34722   0.14473
H          H       0.36520   0.16619   0.29106   0.15474
H          H       0.09579   0.73793   0.55081   0.11323
H          H       0.99253   0.67014   0.47178   0.11599
H          H       0.88568   0.88552   0.41634   0.10438
H          H       0.98171   0.95173   0.50036   0.10367
H          H       0.77559   0.41880   0.40943   0.29712
H          H       0.64289   0.47773   0.81616   0.27443
H          H       0.71813   0.65114   0.55173   0.14719
H          H       0.82418   0.65068   0.54122   0.15117
H          H       0.77976   0.61963   0.62724   0.14702
H          H       0.75031   0.29946   0.48248   0.15653
H          H       0.70077   0.31465   0.56968   0.15788
H          H       0.80711   0.30447   0.56672   0.14702
H          H       0.59210   0.59063   0.69345   0.15413
H          H       0.54564   0.50084   0.67560   0.15569
H          H       0.60758   0.54322   0.60669   0.14795
H          H       0.91232   0.41301   0.75184   0.14902
H          H       0.89810   0.41169   0.65278   0.14476
H          H       0.86520   0.33381   0.70893   0.15490
H          H       0.59580   0.76207   0.44918   0.11314
H          H       0.49253   0.82985   0.52822   0.11574
H          H       0.38567   0.61447   0.58366   0.10443
H          H       0.48171   0.54826   0.49964   0.10394
H          H       0.77561   0.58120   0.90943   0.29708
H          H       0.64298   0.52211   0.31618   0.27486
H          H       0.71814   0.34886   0.05169   0.14747
H          H       0.82419   0.34931   0.04120   0.15160
H          H       0.77977   0.38042   0.12721   0.14703
H          H       0.75030   0.70050   0.98248   0.15644
H          H       0.70076   0.68533   0.06969   0.15776
H          H       0.80710   0.69556   0.06673   0.14700
H          H       0.59215   0.40937   0.19342   0.15426
H          H       0.54565   0.49915   0.17559   0.15559
H          H       0.60761   0.45678   0.10668   0.14782
H          H       0.91236   0.58701   0.25183   0.14910
H          H       0.89811   0.58831   0.15277   0.14485
H          H       0.86521   0.66618   0.20895   0.15479
H          H       0.59580   0.23797   0.94927   0.11341
H          H       0.49257   0.17016   0.02826   0.11606
H          H       0.38567   0.38549   0.08374   0.10468
H          H       0.48173   0.45176  -0.00019   0.10365
H          H       0.27561   0.91880   0.09057   0.29696
H          H       0.14298   0.97789   0.68382   0.27494
H          H       0.21814   0.15114   0.94831   0.14746
H          H       0.32419   0.15069   0.95880   0.15142
H          H       0.27977   0.11958   0.87279   0.14719
H          H       0.25030   0.79949   0.01752   0.15650
H          H       0.20075   0.81467   0.93031   0.15792
H          H       0.30710   0.80443   0.93326   0.14709
H          H       0.09215   0.09063   0.80658   0.15424
H          H       0.04565   0.00084   0.82441   0.15580
H          H       0.10761   0.04322   0.89332   0.14769
H          H       0.41236   0.91299   0.74817   0.14908
H          H       0.39811   0.91168   0.84723   0.14465
H          H       0.36521   0.83381   0.79105   0.15497
H          H       0.09580   0.26203   0.05073   0.11328
H          H       0.99257   0.32983   0.97174   0.11598
H          H       0.88567   0.11451   0.91626   0.10476
H          H       0.98173   0.04824   0.00018   0.10374
H          H       0.22439   0.41880   0.09057   0.29694
H          H       0.35702   0.47789   0.68382   0.27494
H          H       0.28186   0.65114   0.94831   0.14747
H          H       0.17582   0.65069   0.95880   0.15136
H          H       0.22023   0.61958   0.87279   0.14718
H          H       0.24970   0.29949   0.01752   0.15647
H          H       0.29925   0.31467   0.93031   0.15793
H          H       0.19290   0.30443   0.93326   0.14705
H          H       0.40785   0.59063   0.80658   0.15421
H          H       0.45435   0.50084   0.82441   0.15587
H          H       0.39239   0.54322   0.89332   0.14770
H          H       0.08764   0.41299   0.74817   0.14908
H          H       0.10190   0.41168   0.84723   0.14466
H          H       0.13479   0.33381   0.79105   0.15497
H          H       0.40420   0.76203   0.05073   0.11322
H          H       0.50743   0.82983   0.97174   0.11596
H          H       0.61433   0.61451   0.91626   0.10482
H          H       0.51827   0.54824   0.00018   0.10389
H          H       0.72440   0.08120   0.90943   0.29703
H          H       0.85702   0.02211   0.31618   0.27489
H          H       0.78186   0.84886   0.05169   0.14760
H          H       0.67582   0.84931   0.04120   0.15144
H          H       0.72024   0.88042   0.12721   0.14702
H          H       0.74971   0.20050   0.98248   0.15650
H          H       0.79925   0.18533   0.06969   0.15788
H          H       0.69291   0.19557   0.06673   0.14688
H          H       0.90785   0.90937   0.19342   0.15437
H          H       0.95435  -0.00085   0.17559   0.15575
H          H       0.89239   0.95678   0.10668   0.14783
H          H       0.58764   0.08701   0.25183   0.14901
H          H       0.60190   0.08832   0.15277   0.14475
H          H       0.63479   0.16619   0.20895   0.15478
H          H       0.90420   0.73797   0.94927   0.11330
H          H       0.00743   0.67016   0.02826   0.11606
H          H       0.11433   0.88549   0.08374   0.10468
H          H       0.01827   0.95176  -0.00019   0.10364
H          H       0.72441   0.91880   0.40943   0.29715
H          H       0.85712   0.97773   0.81616   0.27443
H          H       0.78187   0.15114   0.55173   0.14735
H          H       0.67582   0.15069   0.54122   0.15109
H          H       0.72025   0.11963   0.62724   0.14702
H          H       0.74969   0.79946   0.48248   0.15652
H          H       0.79924   0.81465   0.56968   0.15798
H          H       0.69289   0.80447   0.56672   0.14689
H          H       0.90790   0.09063   0.69345   0.15424
H          H       0.95436   0.00084   0.67560   0.15579
H          H       0.89242   0.04322   0.60669   0.14791
H          H       0.58768   0.91301   0.75184   0.14887
H          H       0.60190   0.91169   0.65278   0.14472
H          H       0.63480   0.83381   0.70893   0.15498
H          H       0.90421   0.26207   0.44919   0.11315
H          H       0.00747   0.32986   0.52822   0.11577
H          H       0.11433   0.11447   0.58366   0.10445
H          H       0.01829   0.04826   0.49964   0.10378
H          H       0.22441   0.58120   0.59057   0.29704
H          H       0.35712   0.52226   0.18383   0.27441
H          H       0.28187   0.34885   0.44826   0.14736
H          H       0.17582   0.34931   0.45877   0.15119
H          H       0.22025   0.38037   0.37276   0.14710
H          H       0.24969   0.70054   0.51752   0.15636
H          H       0.29924   0.68535   0.43032   0.15796
H          H       0.19289   0.69553   0.43327   0.14692
H          H       0.40790   0.40937   0.30655   0.15446
H          H       0.45436   0.49916   0.32440   0.15571
H          H       0.39242   0.45678   0.39330   0.14791
H          H       0.08768   0.58698   0.24816   0.14911
H          H       0.10190   0.58831   0.34722   0.14473
H          H       0.13480   0.66618   0.29106   0.15471
H          H       0.40421   0.23793   0.55081   0.11317
H          H       0.50747   0.17014   0.47178   0.11585
H          H       0.61433   0.38552   0.41634   0.10448
H          H       0.51830   0.45174   0.50036   0.10368
C          C       0.27329   0.88013   0.43383  -0.44113
C          C       0.27035   0.96014   0.46224   0.21765
C          C       0.25805   0.02781   0.42061  -0.14284
C          C       0.26219   0.08781   0.47235   0.21923
C          C       0.25485   0.17189   0.46305  -0.45212
C          C       0.10073   0.96549   0.33289  -0.43955
C          C       0.17310   0.00525   0.30295   0.21919
C          C       0.24169   0.03274   0.34043  -0.13965
C          C       0.29113   0.06570   0.28485   0.21545
C          C       0.37104   0.10365   0.29328  -0.43785
C          C       0.10785   0.88817   0.57761   0.56465
C          C       0.04553   0.84896   0.53063  -0.03705
C          C       0.04891   0.76931   0.52170  -0.11144
C          C       0.99242   0.73192   0.47754  -0.11391
C          C       0.93097   0.85329   0.44674  -0.09756
C          C       0.98547   0.89035   0.49346  -0.10444
C          C       0.86926   0.73344   0.39523   0.55668
C          C       0.93317   0.77376   0.43935  -0.03796
C          C       0.77330   0.61986   0.56617  -0.44116
C          C       0.77035   0.53986   0.53775   0.21759
C          C       0.75805   0.47218   0.57939  -0.14290
C          C       0.76219   0.41218   0.52765   0.21926
C          C       0.75485   0.32810   0.53695  -0.45215
C          C       0.60073   0.53450   0.66711  -0.43933
C          C       0.67310   0.49474   0.69705   0.21940
C          C       0.74169   0.46726   0.65957  -0.13960
C          C       0.79114   0.43430   0.71515   0.21545
C          C       0.87104   0.39635   0.70672  -0.43784
C          C       0.60785   0.61182   0.42239   0.56461
C          C       0.54553   0.65104   0.46937  -0.03736
C          C       0.54891   0.73068   0.47829  -0.11114
C          C       0.49242   0.76808   0.52246  -0.11413
C          C       0.43097   0.64670   0.55326  -0.09730
C          C       0.48547   0.60965   0.50653  -0.10449
C          C       0.36926   0.76655   0.60477   0.55676
C          C       0.43316   0.72623   0.56065  -0.03806
C          C       0.77331   0.38015   0.06614  -0.44194
C          C       0.77035   0.46014   0.03773   0.21799
C          C       0.75807   0.52782   0.07938  -0.14309
C          C       0.76219   0.58781   0.02766   0.21895
C          C       0.75484   0.67189   0.03696  -0.45195
C          C       0.60075   0.46550   0.16710  -0.43904
C          C       0.67312   0.50528   0.19704   0.21912
C          C       0.74172   0.53275   0.15957  -0.13947
C          C       0.79116   0.56571   0.21516   0.21530
C          C       0.87106   0.60365   0.20672  -0.43793
C          C       0.60782   0.38811   0.92228   0.56474
C          C       0.54549   0.34898   0.96935  -0.03703
C          C       0.54887   0.26933   0.97832  -0.11128
C          C       0.49238   0.23194   0.02247  -0.11410
C          C       0.43093   0.35329   0.05327  -0.09830
C          C       0.48546   0.39036   0.00658  -0.10462
C          C       0.36912   0.23346   0.10470   0.55655
C          C       0.43307   0.27376   0.06062  -0.03802
C          C       0.27330   0.11985   0.93386  -0.44198
C          C       0.27035   0.03985   0.96227   0.21791
C          C       0.25807   0.97218   0.92061  -0.14294
C          C       0.26219   0.91218   0.97234   0.21908
C          C       0.25484   0.82810   0.96304  -0.45203
C          C       0.10075   0.03449   0.83290  -0.43916
C          C       0.17311   0.99471   0.80296   0.21912
C          C       0.24172   0.96725   0.84043  -0.13963
C          C       0.29116   0.93429   0.78484   0.21527
C          C       0.37106   0.89635   0.79328  -0.43787
C          C       0.10782   0.11188   0.07772   0.56478
C          C       0.04549   0.15102   0.03065  -0.03691
C          C       0.04887   0.23066   0.02167  -0.11131
C          C       0.99238   0.26806   0.97752  -0.11422
C          C       0.93093   0.14670   0.94673  -0.09819
C          C       0.98546   0.10964   0.99342  -0.10457
C          C       0.86912   0.26654   0.89529   0.55637
C          C       0.93307   0.22624   0.93938  -0.03798
C          C       0.22670   0.61985   0.93386  -0.44198
C          C       0.22965   0.53985   0.96227   0.21790
C          C       0.24193   0.47218   0.92061  -0.14280
C          C       0.23781   0.41218   0.97234   0.21902
C          C       0.24516   0.32810   0.96304  -0.45198
C          C       0.39925   0.53449   0.83290  -0.43916
C          C       0.32689   0.49471   0.80296   0.21912
C          C       0.25828   0.46725   0.84043  -0.13966
C          C       0.20884   0.43429   0.78484   0.21530
C          C       0.12894   0.39635   0.79328  -0.43798
C          C       0.39218   0.61188   0.07772   0.56469
C          C       0.45451   0.65102   0.03065  -0.03674
C          C       0.45113   0.73066   0.02167  -0.11151
C          C       0.50763   0.76806   0.97752  -0.11420
C          C       0.56907   0.64670   0.94673  -0.09802
C          C       0.51454   0.60964   0.99342  -0.10487
C          C       0.63089   0.76654   0.89529   0.55627
C          C       0.56693   0.72624   0.93938  -0.03799
C          C       0.72670   0.88015   0.06614  -0.44181
C          C       0.72965   0.96014   0.03773   0.21788
C          C       0.74193   0.02782   0.07938  -0.14309
C          C       0.73781   0.08782   0.02766   0.21907
C          C       0.74516   0.17190   0.03696  -0.45197
C          C       0.89926   0.96550   0.16710  -0.43920
C          C       0.82689   0.00528   0.19704   0.21914
C          C       0.75829   0.03275   0.15957  -0.13944
C          C       0.70884   0.06571   0.21516   0.21525
C          C       0.62894   0.10365   0.20672  -0.43789
C          C       0.89218   0.88811   0.92228   0.56475
C          C       0.95452   0.84897   0.96935  -0.03688
C          C       0.95113   0.76933   0.97832  -0.11124
C          C       0.00763   0.73193   0.02247  -0.11400
C          C       0.06907   0.85329   0.05327  -0.09827
C          C       0.01454   0.89036   0.00658  -0.10469
C          C       0.13088   0.73346   0.10470   0.55644
C          C       0.06693   0.77376   0.06062  -0.03798
C          C       0.72671   0.11986   0.56617  -0.44118
C          C       0.72965   0.03986   0.53775   0.21764
C          C       0.74195   0.97218   0.57939  -0.14303
C          C       0.73782   0.91218   0.52765   0.21930
C          C       0.74516   0.82810   0.53695  -0.45207
C          C       0.89928   0.03450   0.66711  -0.43936
C          C       0.82690   0.99474   0.69705   0.21929
C          C       0.75831   0.96726   0.65957  -0.13954
C          C       0.70887   0.93430   0.71515   0.21544
C          C       0.62896   0.89635   0.70672  -0.43785
C          C       0.89215   0.11182   0.42239   0.56465
C          C       0.95447   0.15104   0.46937  -0.03736
C          C       0.95110   0.23068   0.47829  -0.11126
C          C       0.00758   0.26808   0.52246  -0.11399
C          C       0.06903   0.14670   0.55326  -0.09737
C          C       0.01453   0.10965   0.50653  -0.10419
C          C       0.13074   0.26655   0.60476   0.55685
C          C       0.06684   0.22623   0.56065  -0.03815
C          C       0.22671   0.38014   0.43383  -0.44111
C          C       0.22965   0.46014   0.46224   0.21766
C          C       0.24195   0.52781   0.42061  -0.14278
C          C       0.23782   0.58781   0.47235   0.21923
C          C       0.24515   0.67189   0.46305  -0.45214
C          C       0.39928   0.46550   0.33289  -0.43952
C          C       0.32690   0.50525   0.30295   0.21929
C          C       0.25831   0.53273   0.34043  -0.13970
C          C       0.20887   0.56570   0.28485   0.21540
C          C       0.12896   0.60364   0.29328  -0.43786
C          C       0.39215   0.38818   0.57761   0.56460
C          C       0.45447   0.34896   0.53063  -0.03720
C          C       0.45109   0.26931   0.52170  -0.11147
C          C       0.50758   0.23192   0.47754  -0.11381
C          C       0.56903   0.35329   0.44674  -0.09758
C          C       0.51453   0.39035   0.49346  -0.10436
C          C       0.63074   0.23344   0.39523   0.55669
C          C       0.56684   0.27376   0.43935  -0.03803
N          N       0.28044   0.97719   0.53524  -0.24573
N          N       0.27546   0.05469   0.53994  -0.14387
N          N       0.25458   0.05861   0.21794  -0.25744
N          N       0.18336   0.02171   0.22954  -0.14478
N          N       0.78045   0.52280   0.46476  -0.24571
N          N       0.77546   0.44531   0.46006  -0.14355
N          N       0.75458   0.44139   0.78206  -0.25732
N          N       0.68336   0.47828   0.77046  -0.14519
N          N       0.78041   0.47720   0.96474  -0.24553
N          N       0.77543   0.55470   0.96005  -0.14376
N          N       0.75460   0.55864   0.28207  -0.25730
N          N       0.68338   0.52176   0.27045  -0.14460
N          N       0.28041   0.02279   0.03526  -0.24587
N          N       0.27543   0.94530   0.03994  -0.14360
N          N       0.25460   0.94136   0.71793  -0.25722
N          N       0.18338   0.97823   0.72954  -0.14459
N          N       0.21959   0.52279   0.03526  -0.24583
N          N       0.22457   0.44530   0.03994  -0.14360
N          N       0.24540   0.44136   0.71793  -0.25728
N          N       0.31663   0.47823   0.72954  -0.14451
N          N       0.71959   0.97720   0.96474  -0.24552
N          N       0.72457   0.05470   0.96005  -0.14393
N          N       0.74540   0.05864   0.28207  -0.25742
N          N       0.81663   0.02177   0.27045  -0.14450
N          N       0.71956   0.02280   0.46476  -0.24580
N          N       0.72454   0.94530   0.46006  -0.14369
N          N       0.74542   0.94139   0.78206  -0.25745
N          N       0.81664   0.97828   0.77046  -0.14499
N          N       0.21956   0.47719   0.53524  -0.24571
N          N       0.22454   0.55469   0.53994  -0.14384
N          N       0.24542   0.55860   0.21794  -0.25756
N          N       0.31664   0.52171   0.22954  -0.14469
O          O       0.17246   0.84835   0.58746  -0.55510
O          O       0.09519   0.95460   0.60282  -0.55508
O          O       0.87285   0.65887   0.40128  -0.57637
O          O       0.81702   0.76928   0.35972  -0.55635
O          O       0.67246   0.65164   0.41253  -0.55525
O          O       0.59519   0.54540   0.39718  -0.55470
O          O       0.37285   0.84113   0.59871  -0.57668
O          O       0.31702   0.73071   0.64028  -0.55624
O          O       0.67250   0.34835   0.91258  -0.55482
O          O       0.59510   0.45444   0.89686  -0.55462
O          O       0.37281   0.15887   0.09873  -0.57612
O          O       0.31686   0.26927   0.14021  -0.55599
O          O       0.17250   0.15165   0.08742  -0.55517
O          O       0.09510   0.04556   0.10314  -0.55439
O          O       0.87281   0.34112   0.90127  -0.57624
O          O       0.81686   0.23072   0.85978  -0.55567
O          O       0.32751   0.65165   0.08742  -0.55522
O          O       0.40490   0.54556   0.10314  -0.55430
O          O       0.62719   0.84112   0.90127  -0.57638
O          O       0.68314   0.73072   0.85978  -0.55542
O          O       0.82751   0.84834   0.91258  -0.55495
O          O       0.90490   0.95444   0.89686  -0.55462
O          O       0.12719   0.65887   0.09873  -0.57613
O          O       0.18314   0.76927   0.14021  -0.55588
O          O       0.82754   0.15164   0.41253  -0.55536
O          O       0.90481   0.04540   0.39718  -0.55468
O          O       0.12715   0.34113   0.59871  -0.57673
O          O       0.18299   0.23072   0.64028  -0.55627
O          O       0.32754   0.34835   0.58746  -0.55512
O          O       0.40481   0.45460   0.60282  -0.55498
O          O       0.62715   0.15887   0.40128  -0.57652
O          O       0.68299   0.26928   0.35972  -0.55616

