data_crystal

_audit_creation_method 'AiiDA-DDEC plugin'

_cell_length_a         9.67988
_cell_length_b        24.42221
_cell_length_c        25.05269

_cell_angle_alpha     91.41647
_cell_angle_beta     90.00000
_cell_angle_gamma     90.00000

_symmetry_space_group_name_Hall 'P 1'
_symmetry_space_group_name_H-M  'P 1'

loop_
_symmetry_equiv_pos_as_xyz
 'x,y,z'

loop_
_atom_site_label
_atom_site_type_symbol
_atom_site_fract_x
_atom_site_fract_y
_atom_site_fract_z
_atom_site_charge
Zn         Zn      0.96867   0.23402   0.31857   0.61573
Zn         Zn      0.74025   0.01298   0.27433   0.61317
Zn         Zn      0.23781   0.03230   0.13605   0.61373
Zn         Zn      0.32852   0.34032   0.48253   0.61041
Zn         Zn      0.44109   0.21740   0.68405   0.61237
Zn         Zn      0.46867   0.26598   0.18143   0.61574
Zn         Zn      0.24025   0.48701   0.22567   0.61326
Zn         Zn      0.73781   0.46770   0.36395   0.61370
Zn         Zn      0.82852   0.15967   0.01747   0.61033
Zn         Zn      0.94109   0.28260   0.81595   0.61247
Zn         Zn      0.03133   0.76597   0.68144   0.61569
Zn         Zn      0.25975   0.98701   0.72567   0.61320
Zn         Zn      0.76219   0.96770   0.86396   0.61372
Zn         Zn      0.67148   0.65967   0.51747   0.61030
Zn         Zn      0.55891   0.78260   0.31595   0.61243
Zn         Zn      0.53132   0.73402   0.81857   0.61579
Zn         Zn      0.75974   0.51298   0.77433   0.61321
Zn         Zn      0.26219   0.53230   0.63605   0.61381
Zn         Zn      0.17148   0.84032   0.98253   0.61043
Zn         Zn      0.05891   0.71740   0.18405   0.61237
H          H       0.17491   0.28754   0.23219   0.08734
H          H       0.20980   0.14033   0.31560   0.11532
H          H       0.44098   0.15279   0.25146   0.11133
H          H       0.94944   0.11092   0.27203   0.07855
H          H       0.74556   0.18505   0.40367   0.10871
H          H       0.63328   0.08211   0.38332   0.11227
H          H       0.42685   0.98983   0.23091   0.08262
H          H       0.72811   0.10386   0.18419   0.10312
H          H       0.49588   0.11437   0.12051   0.10371
H          H       0.94815   0.05639   0.18239   0.08199
H          H       0.20693   0.92300   0.21515   0.09906
H          H       0.97119   0.91743   0.27834   0.10765
H          H       0.53490   0.43179   0.45494   0.09009
H          H       0.47916   0.28000   0.37384   0.10900
H          H       0.68125   0.33939   0.32238   0.10446
H          H       0.36827   0.41486   0.59207   0.08592
H          H       0.12162   0.53373   0.51865   0.10875
H          H       0.15851   0.44554   0.44820   0.10459
H          H       0.23512   0.27651   0.37457   0.08132
H          H       0.99639   0.33807   0.50325   0.11534
H          H       0.82237   0.29420   0.42508   0.10667
H          H       0.28468   0.30103   0.60648   0.08934
H          H       0.58357   0.26072   0.48968   0.10675
H          H       0.64136   0.20475   0.58238   0.11437
H          H       0.13694   0.20662   0.73753   0.08386
H          H       0.19499   0.36580   0.80242   0.11121
H          H       0.42038   0.33728   0.73894   0.10168
H          H       0.60751   0.89508   0.24993   0.09042
H          H       0.66191   0.86078   0.41254   0.11588
H          H       0.73532   0.96911   0.39547   0.11392
H          H       0.67491   0.21246   0.26781   0.08743
H          H       0.70980   0.35967   0.18440   0.11524
H          H       0.94098   0.34721   0.24854   0.11131
H          H       0.44944   0.38908   0.22797   0.07856
H          H       0.24556   0.31495   0.09633   0.10875
H          H       0.13328   0.41788   0.11668   0.11218
H          H       0.92685   0.51017   0.26909   0.08256
H          H       0.22811   0.39614   0.31581   0.10320
H          H       0.99589   0.38563   0.37949   0.10382
H          H       0.44815   0.44361   0.31761   0.08210
H          H       0.70693   0.57700   0.28485   0.09899
H          H       0.47119   0.58256   0.22166   0.10753
H          H       0.03490   0.06820   0.04506   0.09017
H          H       0.97916   0.22000   0.12616   0.10886
H          H       0.18125   0.16061   0.17762   0.10448
H          H       0.86827   0.08514   0.90794   0.08577
H          H       0.62162   0.96626   0.98135   0.10914
H          H       0.65851   0.05446   0.05180   0.10461
H          H       0.73512   0.22349   0.12543   0.08132
H          H       0.49639   0.16193   0.99675   0.11533
H          H       0.32237   0.20579   0.07492   0.10663
H          H       0.78468   0.19897   0.89352   0.08945
H          H       0.08357   0.23928   0.01032   0.10677
H          H       0.14136   0.29524   0.91762   0.11408
H          H       0.63694   0.29338   0.76247   0.08379
H          H       0.69499   0.13420   0.69758   0.11236
H          H       0.92038   0.16272   0.76106   0.10184
H          H       0.10751   0.60492   0.25007   0.09044
H          H       0.16192   0.63922   0.08746   0.11573
H          H       0.23532   0.53089   0.10453   0.11401
H          H       0.82509   0.71246   0.76781   0.08759
H          H       0.79020   0.85967   0.68440   0.11508
H          H       0.55902   0.84721   0.74854   0.11133
H          H       0.05056   0.88908   0.72797   0.07863
H          H       0.25444   0.81495   0.59633   0.10876
H          H       0.36672   0.91788   0.61668   0.11208
H          H       0.57314   0.01017   0.76909   0.08246
H          H       0.27189   0.89614   0.81581   0.10325
H          H       0.50411   0.88562   0.87949   0.10392
H          H       0.05185   0.94361   0.81761   0.08222
H          H       0.79307   0.07700   0.78485   0.09911
H          H       0.02881   0.08256   0.72166   0.10751
H          H       0.46510   0.56820   0.54506   0.09020
H          H       0.52083   0.72000   0.62616   0.10877
H          H       0.31875   0.66060   0.67763   0.10449
H          H       0.63173   0.58514   0.40794   0.08585
H          H       0.87838   0.46626   0.48135   0.10908
H          H       0.84149   0.55446   0.55180   0.10460
H          H       0.76488   0.72349   0.62543   0.08139
H          H       0.00361   0.66193   0.49675   0.11531
H          H       0.17763   0.70579   0.57492   0.10658
H          H       0.71532   0.69897   0.39352   0.08936
H          H       0.41642   0.73928   0.51032   0.10677
H          H       0.35864   0.79524   0.41762   0.11422
H          H       0.86305   0.79338   0.26247   0.08373
H          H       0.80501   0.63420   0.19758   0.11134
H          H       0.57962   0.66272   0.26106   0.10184
H          H       0.39249   0.10492   0.75007   0.09049
H          H       0.33808   0.13922   0.58746   0.11567
H          H       0.26468   0.03088   0.60453   0.11404
H          H       0.32509   0.78754   0.73219   0.08722
H          H       0.29020   0.64032   0.81560   0.11532
H          H       0.05902   0.65279   0.75146   0.11135
H          H       0.55056   0.61092   0.77203   0.07857
H          H       0.75444   0.68505   0.90367   0.10848
H          H       0.86672   0.58211   0.88332   0.11227
H          H       0.07314   0.48983   0.73091   0.08267
H          H       0.77189   0.60386   0.68419   0.10314
H          H       0.00411   0.61437   0.62051   0.10368
H          H       0.55185   0.55639   0.68239   0.08175
H          H       0.29307   0.42300   0.71515   0.09913
H          H       0.52880   0.41743   0.77834   0.10768
H          H       0.96510   0.93179   0.95494   0.09009
H          H       0.02084   0.77999   0.87384   0.10907
H          H       0.81875   0.83939   0.82238   0.10446
H          H       0.13173   0.91486   0.09207   0.08590
H          H       0.37838   0.03374   0.01865   0.10884
H          H       0.34149   0.94553   0.94820   0.10450
H          H       0.26488   0.77651   0.87457   0.08138
H          H       0.50361   0.83806   0.00325   0.11522
H          H       0.67763   0.79420   0.92508   0.10649
H          H       0.21532   0.80103   0.10648   0.08933
H          H       0.91642   0.76072   0.98969   0.10678
H          H       0.85863   0.70475   0.08238   0.11440
H          H       0.36305   0.70662   0.23753   0.08386
H          H       0.30501   0.86580   0.30242   0.11121
H          H       0.07962   0.83728   0.23894   0.10173
H          H       0.89248   0.39508   0.74993   0.09038
H          H       0.83808   0.36078   0.91254   0.11602
H          H       0.76467   0.46911   0.89547   0.11403
C          C       0.21599   0.24939   0.24669   0.11266
C          C       0.23691   0.17290   0.28900  -0.07336
C          C       0.35257   0.17942   0.25762  -0.06547
C          C       0.87811   0.11727   0.30496   0.11114
C          C       0.77036   0.15473   0.37289  -0.07386
C          C       0.71538   0.10338   0.36308  -0.07328
C          C       0.47834   0.02175   0.20912   0.11170
C          C       0.63204   0.08117   0.18427  -0.07329
C          C       0.51695   0.08650   0.15247  -0.05687
C          C       0.98620   0.01951   0.20053   0.11411
C          C       0.11893   0.95024   0.21802  -0.07958
C          C       0.00158   0.94707   0.24909  -0.07401
C          C       0.54733   0.39849   0.42591   0.11496
C          C       0.51991   0.32042   0.38320  -0.08520
C          C       0.62072   0.34978   0.35751  -0.06790
C          C       0.30570   0.43508   0.56255   0.10818
C          C       0.17850   0.49603   0.52350  -0.06483
C          C       0.19613   0.45214   0.48860  -0.06961
C          C       0.14699   0.28689   0.39946   0.11610
C          C       0.02039   0.31842   0.46518  -0.07019
C          C       0.93406   0.29604   0.42668  -0.06608
C          C       0.37389   0.28251   0.58712   0.11406
C          C       0.52994   0.26047   0.52760  -0.07140
C          C       0.55865   0.23294   0.57356  -0.07194
C          C       0.18345   0.24602   0.74694   0.11976
C          C       0.21653   0.32849   0.77969  -0.07322
C          C       0.32883   0.31413   0.74858  -0.07613
C          C       0.63214   0.90053   0.29193   0.10626
C          C       0.66194   0.88407   0.37631  -0.07192
C          C       0.69762   0.93776   0.36784  -0.07217
C          C       0.71598   0.25061   0.25331   0.11286
C          C       0.73691   0.32710   0.21100  -0.07373
C          C       0.85257   0.32057   0.24238  -0.06556
C          C       0.37811   0.38273   0.19505   0.11114
C          C       0.27037   0.34526   0.12711  -0.07388
C          C       0.21538   0.39662   0.13692  -0.07330
C          C       0.97834   0.47825   0.29088   0.11162
C          C       0.13205   0.41883   0.31573  -0.07325
C          C       0.01695   0.41350   0.34753  -0.05682
C          C       0.48621   0.48048   0.29947   0.11432
C          C       0.61893   0.54975   0.28198  -0.07980
C          C       0.50158   0.55292   0.25091  -0.07427
C          C       0.04733   0.10150   0.07409   0.11485
C          C       0.01991   0.17958   0.11680  -0.08523
C          C       0.12072   0.15021   0.14249  -0.06795
C          C       0.80570   0.06491   0.93745   0.10760
C          C       0.67850   0.00397   0.97651  -0.06477
C          C       0.69612   0.04786   0.01140  -0.06949
C          C       0.64699   0.21311   0.10054   0.11607
C          C       0.52039   0.18158   0.03482  -0.07011
C          C       0.43406   0.20395   0.07333  -0.06610
C          C       0.87389   0.21749   0.91288   0.11398
C          C       0.02994   0.23952   0.97241  -0.07132
C          C       0.05865   0.26706   0.92645  -0.07204
C          C       0.68345   0.25398   0.75306   0.11919
C          C       0.71652   0.17151   0.72031  -0.07422
C          C       0.82883   0.18587   0.75142  -0.07589
C          C       0.13214   0.59947   0.20807   0.10620
C          C       0.16195   0.61592   0.12369  -0.07199
C          C       0.19763   0.56224   0.13216  -0.07199
C          C       0.78401   0.75061   0.75331   0.11279
C          C       0.76309   0.82710   0.71100  -0.07395
C          C       0.64742   0.82057   0.74238  -0.06550
C          C       0.12189   0.88273   0.69505   0.11112
C          C       0.22963   0.84526   0.62711  -0.07374
C          C       0.28462   0.89662   0.63692  -0.07345
C          C       0.52166   0.97825   0.79088   0.11155
C          C       0.36795   0.91883   0.81573  -0.07309
C          C       0.48305   0.91350   0.84753  -0.05675
C          C       0.01379   0.98048   0.79947   0.11428
C          C       0.88107   0.04975   0.78198  -0.07988
C          C      -0.00158   0.05292   0.75091  -0.07436
C          C       0.45267   0.60150   0.57409   0.11511
C          C       0.48009   0.67958   0.61680  -0.08533
C          C       0.37928   0.65021   0.64249  -0.06791
C          C       0.69430   0.56491   0.43745   0.10766
C          C       0.82150   0.50397   0.47650  -0.06485
C          C       0.80387   0.54785   0.51140  -0.06948
C          C       0.85301   0.71311   0.60054   0.11619
C          C       0.97961   0.68157   0.53482  -0.07000
C          C       0.06594   0.70395   0.57333  -0.06634
C          C       0.62610   0.71749   0.41288   0.11392
C          C       0.47006   0.73952   0.47241  -0.07120
C          C       0.44134   0.76706   0.42644  -0.07205
C          C       0.81654   0.75398   0.25306   0.11929
C          C       0.78347   0.67151   0.22031  -0.07314
C          C       0.67116   0.68587   0.25142  -0.07583
C          C       0.36785   0.09947   0.70807   0.10621
C          C       0.33805   0.11592   0.62369  -0.07205
C          C       0.30237   0.06224   0.63216  -0.07198
C          C       0.28401   0.74938   0.74670   0.11258
C          C       0.26309   0.67290   0.78900  -0.07298
C          C       0.14743   0.67942   0.75763  -0.06525
C          C       0.62188   0.61727   0.80496   0.11126
C          C       0.72963   0.65473   0.87289  -0.07380
C          C       0.78462   0.60338   0.86308  -0.07326
C          C       0.02166   0.52174   0.70912   0.11173
C          C       0.86795   0.58117   0.68427  -0.07341
C          C       0.98305   0.58650   0.65247  -0.05705
C          C       0.51379   0.51951   0.70053   0.11420
C          C       0.38107   0.45024   0.71802  -0.07958
C          C       0.49842   0.44707   0.74909  -0.07393
C          C       0.95266   0.89849   0.92591   0.11460
C          C       0.98009   0.82042   0.88320  -0.08513
C          C       0.87928   0.84978   0.85751  -0.06784
C          C       0.19430   0.93508   0.06255   0.10813
C          C       0.32150   0.99603   0.02350  -0.06496
C          C       0.30387   0.95214   0.98860  -0.06949
C          C       0.35301   0.78688   0.89946   0.11611
C          C       0.47961   0.81842   0.96518  -0.07009
C          C       0.56594   0.79604   0.92668  -0.06596
C          C       0.12611   0.78251   0.08712   0.11401
C          C       0.97006   0.76047   0.02759  -0.07115
C          C       0.94134   0.73294   0.07356  -0.07195
C          C       0.31654   0.74602   0.24694   0.11959
C          C       0.28347   0.82849   0.27969  -0.07328
C          C       0.17116   0.81413   0.24858  -0.07599
C          C       0.86785   0.40053   0.79193   0.10615
C          C       0.83805   0.38407   0.87631  -0.07196
C          C       0.80237   0.43776   0.86784  -0.07218
N          N       0.15034   0.21737   0.28184  -0.29329
N          N       0.33877   0.22818   0.23095  -0.29475
N          N       0.87372   0.16338   0.33576  -0.28858
N          N       0.78462   0.07968   0.32002  -0.29086
N          N       0.60707   0.03989   0.22005  -0.29235
N          N       0.41994   0.04869   0.16853  -0.28457
N          N       0.91772   0.99120   0.23774  -0.28760
N          N       0.10868   0.99648   0.18739  -0.28679
N          N       0.63789   0.39925   0.38499  -0.29247
N          N       0.47338   0.35170   0.42655  -0.29076
N          N       0.24808   0.48495   0.57031  -0.28974
N          N       0.27689   0.41356   0.51368  -0.29176
N          N       0.15538   0.31245   0.44763  -0.28754
N          N       0.01537   0.27606   0.38509  -0.28998
N          N       0.41256   0.29184   0.53643  -0.28720
N          N       0.45951   0.24722   0.61123  -0.28897
N          N       0.30736   0.26173   0.72787  -0.28958
N          N       0.12443   0.28507   0.77843  -0.28807
N          N       0.62056   0.86064   0.32797  -0.28796
N          N       0.67814   0.94806   0.31419  -0.28654
N          N       0.65034   0.28263   0.21816  -0.29307
N          N       0.83877   0.27182   0.26905  -0.29469
N          N       0.37372   0.33662   0.16424  -0.28831
N          N       0.28462   0.42032   0.17998  -0.29109
N          N       0.10708   0.46011   0.27995  -0.29247
N          N       0.91994   0.45131   0.33147  -0.28461
N          N       0.41772   0.50880   0.26226  -0.28750
N          N       0.60868   0.50352   0.31261  -0.28658
N          N       0.13789   0.10075   0.11501  -0.29219
N          N       0.97338   0.14830   0.07345  -0.29085
N          N       0.74808   0.01505   0.92969  -0.28942
N          N       0.77689   0.08644   0.98632  -0.29187
N          N       0.65538   0.18754   0.05237  -0.28755
N          N       0.51536   0.22394   0.11491  -0.28999
N          N       0.91256   0.20816   0.96357  -0.28667
N          N       0.95951   0.25277   0.88877  -0.28914
N          N       0.80736   0.23827   0.77213  -0.28966
N          N       0.62443   0.21493   0.72157  -0.28791
N          N       0.12057   0.63935   0.17204  -0.28832
N          N       0.17814   0.55193   0.18581  -0.28620
N          N       0.84966   0.78263   0.71817  -0.29316
N          N       0.66123   0.77182   0.76905  -0.29444
N          N       0.12627   0.83662   0.66424  -0.28809
N          N       0.21538   0.92031   0.67998  -0.29124
N          N       0.39292   0.96011   0.77995  -0.29253
N          N       0.58006   0.95130   0.83147  -0.28469
N          N       0.08228   0.00880   0.76226  -0.28769
N          N       0.89132   0.00352   0.81261  -0.28643
N          N       0.36211   0.60074   0.61501  -0.29211
N          N       0.52662   0.64830   0.57345  -0.29107
N          N       0.75191   0.51505   0.42969  -0.28935
N          N       0.72310   0.58644   0.48632  -0.29186
N          N       0.84462   0.68754   0.55237  -0.28745
N          N       0.98463   0.72394   0.61491  -0.29013
N          N       0.58744   0.70816   0.46357  -0.28689
N          N       0.54049   0.75277   0.38877  -0.28909
N          N       0.69263   0.73827   0.27213  -0.28972
N          N       0.87556   0.71493   0.22157  -0.28795
N          N       0.37943   0.13935   0.67204  -0.28834
N          N       0.32185   0.05193   0.68581  -0.28616
N          N       0.34966   0.71736   0.78184  -0.29356
N          N       0.16123   0.72818   0.73095  -0.29485
N          N       0.62627   0.66337   0.83576  -0.28870
N          N       0.71538   0.57968   0.82002  -0.29075
N          N       0.89292   0.53988   0.72005  -0.29213
N          N       0.08006   0.54869   0.66853  -0.28462
N          N       0.58227   0.49119   0.73774  -0.28766
N          N       0.39132   0.49648   0.68739  -0.28669
N          N       0.86211   0.89925   0.88500  -0.29239
N          N       0.02662   0.85170   0.92655  -0.29069
N          N       0.25192   0.98495   0.07031  -0.28976
N          N       0.22311   0.91356   0.01368  -0.29171
N          N       0.34462   0.81245   0.94763  -0.28752
N          N       0.48463   0.77606   0.88509  -0.28993
N          N       0.08744   0.79184   0.03643  -0.28728
N          N       0.04049   0.74722   0.11123  -0.28905
N          N       0.19264   0.76173   0.22787  -0.28958
N          N       0.37556   0.78507   0.27843  -0.28799
N          N       0.87943   0.36064   0.82797  -0.28798
N          N       0.82185   0.44806   0.81419  -0.28655

