data_crystal

_audit_creation_method 'AiiDA-DDEC plugin'

_cell_length_a         8.73890
_cell_length_b        19.21421
_cell_length_c        22.01699

_cell_angle_alpha     90.03772
_cell_angle_beta     90.00000
_cell_angle_gamma     90.00045

_symmetry_space_group_name_Hall 'P 1'
_symmetry_space_group_name_H-M  'P 1'

loop_
_symmetry_equiv_pos_as_xyz
 'x,y,z'

loop_
_atom_site_label
_atom_site_type_symbol
_atom_site_fract_x
_atom_site_fract_y
_atom_site_fract_z
_atom_site_charge
Cu         Cu      0.74714   0.89410   0.50043   0.41528
Cu         Cu      0.75283   0.39408   0.00043   0.41530
Cu         Cu      0.24852   0.76899   0.49866   0.28539
Cu         Cu      0.25148   0.26899  -0.00134   0.28547
Cu         Cu      0.24716   0.60592  -0.00045   0.41519
Cu         Cu      0.25286   0.10591   0.49959   0.41531
Cu         Cu      0.74853   0.73101   0.00134   0.28539
Cu         Cu      0.75149   0.23101   0.50133   0.28525
H          H       0.88623   0.04064   0.53063   0.10437
H          H       0.80915   0.13516   0.60288   0.09203
H          H       0.62423   0.89869   0.62841   0.09868
H          H       0.52851   0.09550   0.74600   0.11636
H          H       0.56130   0.15108   0.82925   0.12423
H          H       0.48874   0.24325   0.90305   0.09173
H          H       0.10168   0.13562   0.95638   0.09802
H          H       0.16080   0.03665   0.88687   0.12099
H          H       0.31742   0.94217   0.86403   0.12086
H          H       0.28445   0.73629   0.91379   0.09049
H          H       0.41810   0.64322   0.85314   0.09101
H          H       0.55152   0.79104   0.72603   0.09350
H          H       0.62182   0.04497   0.47159   0.11192
H          H       0.67743   0.13523   0.39472   0.09871
H          H       0.88452   0.90184   0.37396   0.09932
H          H       0.96865   0.09619   0.25297   0.11458
H          H       0.94098   0.15212   0.16844   0.12107
H          H       0.02315   0.24429   0.09488   0.09252
H          H       0.40895   0.13335   0.04653   0.09235
H          H       0.34013   0.03445   0.11449   0.11906
H          H       0.18020   0.94198   0.13588   0.12086
H          H       0.20408   0.73730   0.08402   0.09086
H          H       0.07684   0.64399   0.14547   0.09266
H          H       0.94977   0.79102   0.27470   0.09070
H          H       0.61378   0.54066   0.03065   0.10430
H          H       0.69092   0.63517   0.10289   0.09182
H          H       0.87574   0.39868   0.12842   0.09886
H          H       0.97154   0.59550   0.24600   0.11617
H          H       0.93871   0.65107   0.32926   0.12409
H          H       0.01125   0.74325   0.40305   0.09153
H          H       0.39832   0.63564   0.45639   0.09814
H          H       0.33923   0.53666   0.38689   0.12123
H          H       0.18262   0.44216   0.36403   0.12109
H          H       0.21561   0.23627   0.41377   0.09063
H          H       0.08189   0.14321   0.35313   0.09112
H          H       0.94843   0.29104   0.22604   0.09336
H          H       0.87817   0.54497   0.97160   0.11213
H          H       0.82261   0.63523   0.89472   0.09887
H          H       0.61547   0.40185   0.87396   0.09928
H          H       0.53137   0.59620   0.75297   0.11458
H          H       0.55903   0.65214   0.66844   0.12113
H          H       0.47682   0.74430   0.59489   0.09269
H          H       0.09103   0.63335   0.54655   0.09213
H          H       0.15989   0.53445   0.61450   0.11888
H          H       0.31984   0.44199   0.63588   0.12080
H          H       0.29601   0.23731   0.58400   0.09096
H          H       0.42319   0.14400   0.64547   0.09258
H          H       0.55022   0.29102   0.77471   0.09066
H          H       0.38625   0.45935   0.96935   0.10431
H          H       0.30912   0.36484   0.89711   0.09178
H          H       0.12425   0.60132   0.87158   0.09897
H          H       0.02848   0.40450   0.75399   0.11594
H          H       0.06130   0.34894   0.67074   0.12427
H          H       0.98876   0.25675   0.59695   0.09152
H          H       0.60169   0.36437   0.54361   0.09802
H          H       0.66079   0.46335   0.61312   0.12121
H          H       0.81739   0.55784   0.63597   0.12113
H          H       0.78441   0.76373   0.58623   0.09066
H          H       0.91811   0.85680   0.64686   0.09132
H          H       0.05156   0.70896   0.77396   0.09331
H          H       0.12184   0.45503   0.02840   0.11207
H          H       0.17740   0.36478   0.10528   0.09864
H          H       0.38455   0.59815   0.12603   0.09948
H          H       0.46864   0.40381   0.24703   0.11451
H          H       0.44097   0.34787   0.33156   0.12101
H          H       0.52318   0.25571   0.40511   0.09242
H          H       0.90897   0.36666   0.45346   0.09236
H          H       0.84012   0.46556   0.38550   0.11923
H          H       0.68017   0.55802   0.36412   0.12085
H          H       0.70403   0.76269   0.41599   0.09096
H          H       0.57682   0.85601   0.35453   0.09281
H          H       0.44978   0.70899   0.22529   0.09069
H          H       0.11378   0.95936   0.46936   0.10425
H          H       0.19087   0.86484   0.39712   0.09181
H          H       0.37574   0.10132   0.37159   0.09894
H          H       0.47150   0.90450   0.25400   0.11610
H          H       0.43871   0.84892   0.17075   0.12402
H          H       0.51127   0.75675   0.09695   0.09142
H          H       0.89832   0.86438   0.04361   0.09820
H          H       0.83921   0.96335   0.11313   0.12122
H          H       0.68259   0.05783   0.13597   0.12113
H          H       0.71554   0.26371   0.08621   0.09068
H          H       0.58191   0.35679   0.14686   0.09128
H          H       0.44848   0.20896   0.27397   0.09325
H          H       0.37818   0.95504   0.52841   0.11218
H          H       0.32257   0.86478   0.60527   0.09856
H          H       0.11549   0.09817   0.62605   0.09946
H          H       0.03137   0.90381   0.74703   0.11437
H          H       0.05902   0.84788   0.83155   0.12115
H          H       0.97685   0.75570   0.90510   0.09241
H          H       0.59105   0.86665   0.95346   0.09202
H          H       0.65988   0.96556   0.88550   0.11907
H          H       0.81981   0.05802   0.86412   0.12076
H          H       0.79595   0.26270   0.91599   0.09077
H          H       0.92317   0.35601   0.85453   0.09283
H          H       0.05023   0.20899   0.72530   0.09075
C          C       0.55608   0.85305   0.50221  -0.42684
C          C       0.42894   0.82185   0.50088  -0.35536
C          C       0.81266   0.02946   0.56920   0.03152
C          C       0.77317   0.08161   0.61059   0.06876
C          C       0.64261   0.00216   0.66800   0.12083
C          C       0.67229   0.95068   0.62451   0.00416
C          C       0.55341   0.98688   0.72350   0.17912
C          C       0.50125   0.04227   0.75931  -0.19769
C          C       0.41421   0.02768   0.81112   0.10581
C          C       0.36762   0.08486   0.85190   0.10113
C          C       0.45793   0.14520   0.85619  -0.16745
C          C       0.41805   0.19706   0.89711   0.08180
C          C       0.20337   0.13625   0.92785   0.07877
C          C       0.23715   0.08128   0.88895  -0.17471
C          C       0.38178   0.95777   0.82404  -0.20332
C          C       0.44346   0.90561   0.78675   0.18110
C          C       0.42666   0.83125   0.80350   0.12096
C          C       0.34547   0.74912   0.87191   0.04683
C          C       0.41737   0.69711   0.83780   0.04183
C          C       0.49335   0.77822   0.76830   0.01806
C          C       0.06274   0.82087   0.50080  -0.08737
C          C       0.69224   0.03212   0.43222   0.03962
C          C       0.72140   0.08264   0.38813   0.06513
C          C       0.85726   0.00355   0.33222   0.12156
C          C       0.83419   0.95343   0.37752   0.00134
C          C       0.94595   0.98775   0.27658   0.17789
C          C      -0.00329   0.04287   0.24014  -0.19768
C          C       0.08428   0.02791   0.18852   0.10609
C          C       0.13395   0.08471   0.14787   0.09920
C          C       0.04626   0.14572   0.14276  -0.16825
C          C       0.09137   0.19752   0.10256   0.08898
C          C       0.30552   0.13500   0.07406   0.07492
C          C       0.26642   0.07994   0.11206  -0.17721
C          C       0.11628   0.95790   0.17590  -0.20500
C          C       0.05541   0.90596   0.21359   0.18112
C          C       0.07159   0.83159   0.19672   0.11909
C          C       0.14842   0.74995   0.12703   0.05149
C          C       0.07887   0.69762   0.16153   0.04764
C          C       0.00658   0.77840   0.23207   0.01457
C          C       0.94390   0.35303   0.00219  -0.42707
C          C       0.07106   0.32186   0.00087  -0.35509
C          C       0.68735   0.52947   0.06921   0.03149
C          C       0.72687   0.58161   0.11060   0.06877
C          C       0.85742   0.50216   0.16801   0.12096
C          C       0.82770   0.45068   0.12452   0.00406
C          C       0.94663   0.48688   0.22351   0.17933
C          C      -0.00121   0.54226   0.25932  -0.19775
C          C       0.08582   0.52768   0.31112   0.10587
C          C       0.13240   0.58486   0.35191   0.10110
C          C       0.04207   0.64519   0.35620  -0.16753
C          C       0.08195   0.69706   0.39712   0.08177
C          C       0.29663   0.63626   0.42786   0.07884
C          C       0.26287   0.58128   0.38897  -0.17470
C          C       0.11825   0.45777   0.32405  -0.20337
C          C       0.05657   0.40560   0.28675   0.18123
C          C       0.07337   0.33124   0.30350   0.12107
C          C       0.15458   0.24911   0.37190   0.04666
C          C       0.08264   0.19710   0.33780   0.04218
C          C       0.00664   0.27822   0.26831   0.01825
C          C       0.43724   0.32088   0.00080  -0.08795
C          C       0.80776   0.53212   0.93223   0.03961
C          C       0.77862   0.58264   0.88813   0.06519
C          C       0.64276   0.50355   0.83222   0.12161
C          C       0.66581   0.45344   0.87752   0.00089
C          C       0.55407   0.48775   0.77659   0.17820
C          C       0.50332   0.54288   0.74015  -0.19781
C          C       0.41576   0.52792   0.68852   0.10634
C          C       0.36606   0.58471   0.64788   0.09920
C          C       0.45375   0.64573   0.64276  -0.16812
C          C       0.40861   0.69753   0.60257   0.08888
C          C       0.19447   0.63500   0.57407   0.07525
C          C       0.23359   0.57994   0.61207  -0.17744
C          C       0.38375   0.45791   0.67590  -0.20522
C          C       0.44463   0.40597   0.71359   0.18105
C          C       0.42846   0.33160   0.69671   0.11922
C          C       0.35165   0.24996   0.62701   0.05146
C          C       0.42118   0.19762   0.66152   0.04748
C          C       0.49344   0.27841   0.73207   0.01502
C          C       0.05611   0.64698   0.99778  -0.42674
C          C       0.92894   0.67815  -0.00088  -0.35537
C          C       0.31267   0.47054   0.93079   0.03140
C          C       0.27315   0.41839   0.88940   0.06854
C          C       0.14260   0.49784   0.83199   0.12091
C          C       0.17230   0.54933   0.87548   0.00420
C          C       0.05338   0.51313   0.77649   0.17901
C          C       0.00123   0.45774   0.74068  -0.19776
C          C       0.91420   0.47233   0.68888   0.10583
C          C       0.86761   0.41514   0.64809   0.10127
C          C       0.95794   0.35482   0.64380  -0.16773
C          C       0.91806   0.30295   0.60288   0.08178
C          C       0.70338   0.36375   0.57214   0.07901
C          C       0.73715   0.41873   0.61104  -0.17468
C          C       0.88176   0.54224   0.67595  -0.20344
C          C       0.94343   0.59440   0.71325   0.18132
C          C       0.92663   0.66876   0.69650   0.12099
C          C       0.84543   0.75090   0.62810   0.04686
C          C       0.91736   0.80291   0.66220   0.04215
C          C       0.99336   0.72179   0.73169   0.01811
C          C       0.56273   0.67913  -0.00080  -0.08717
C          C       0.19225   0.46788   0.06777   0.03961
C          C       0.22139   0.41736   0.11186   0.06500
C          C       0.35726   0.49645   0.16777   0.12160
C          C       0.33420   0.54656   0.12247   0.00128
C          C       0.44594   0.51225   0.22341   0.17788
C          C       0.49669   0.45713   0.25985  -0.19791
C          C       0.58426   0.47208   0.31147   0.10622
C          C       0.63394   0.41529   0.35212   0.09915
C          C       0.54626   0.35427   0.35724  -0.16810
C          C       0.59139   0.30248   0.39744   0.08865
C          C       0.80553   0.36501   0.42593   0.07507
C          C       0.76641   0.42006   0.38793  -0.17734
C          C       0.61626   0.54210   0.32410  -0.20490
C          C       0.55539   0.59404   0.28641   0.18085
C          C       0.57156   0.66841   0.30328   0.11938
C          C       0.64837   0.75005   0.37298   0.05160
C          C       0.57883   0.80238   0.33848   0.04748
C          C       0.50656   0.72160   0.26793   0.01443
C          C       0.44393   0.14695   0.49782  -0.42717
C          C       0.57107   0.17816   0.49913  -0.35493
C          C       0.18734   0.97054   0.43080   0.03131
C          C       0.22685   0.91839   0.38941   0.06851
C          C       0.35740   0.99784   0.33200   0.12105
C          C       0.32770   0.04933   0.37549   0.00430
C          C       0.44660   0.01313   0.27650   0.17904
C          C       0.49876   0.95774   0.24069  -0.19779
C          C       0.58580   0.97232   0.18888   0.10563
C          C       0.63239   0.91514   0.14810   0.10123
C          C       0.54208   0.85480   0.14381  -0.16757
C          C       0.58197   0.80294   0.10288   0.08174
C          C       0.79664   0.86375   0.07215   0.07901
C          C       0.76286   0.91872   0.11104  -0.17462
C          C       0.61823   0.04223   0.17596  -0.20312
C          C       0.55655   0.09440   0.21325   0.18096
C          C       0.57335   0.16875   0.19650   0.12095
C          C       0.65454   0.25088   0.12808   0.04696
C          C       0.58264   0.30290   0.16219   0.04202
C          C       0.50666   0.22179   0.23169   0.01828
C          C       0.93725   0.17913   0.49920  -0.08725
C          C       0.30777   0.96789   0.56778   0.03954
C          C       0.27859   0.91737   0.61187   0.06518
C          C       0.14275   0.99646   0.66778   0.12157
C          C       0.16581   0.04658   0.62248   0.00131
C          C       0.05406   0.01226   0.72341   0.17780
C          C       0.00331   0.95713   0.75985  -0.19778
C          C       0.91574   0.97209   0.81148   0.10608
C          C       0.86605   0.91529   0.85212   0.09935
C          C       0.95375   0.85428   0.85723  -0.16800
C          C       0.90863   0.80248   0.89743   0.08886
C          C       0.69449   0.86500   0.92594   0.07497
C          C       0.73359   0.92006   0.88793  -0.17705
C          C       0.88373   0.04210   0.82410  -0.20494
C          C       0.94460   0.09404   0.78641   0.18079
C          C       0.92842   0.16841   0.80328   0.11948
C          C       0.85160   0.25005   0.87298   0.05152
C          C       0.92115   0.30239   0.83848   0.04762
C          C       0.99342   0.22160   0.76793   0.01439
N          N       0.75750   0.96434   0.57503  -0.16834
N          N       0.68939   0.06845   0.65999  -0.23015
N          N       0.52791   0.91960   0.73701  -0.32780
N          N       0.34966   0.81617   0.85503  -0.26428
N          N       0.48923   0.71125   0.78525  -0.20978
N          N       0.29306   0.19327   0.93302  -0.19237
N          N       0.95400   0.85674   0.49575  -0.38443
N          N       0.75298   0.96806   0.42785  -0.16650
N          N       0.80380   0.06908   0.33844  -0.23583
N          N       0.97247   0.92034   0.26370  -0.33028
N          N       0.14598   0.81679   0.14445  -0.26812
N          N       0.01030   0.71142   0.21483  -0.21552
N          N       0.21935   0.19291   0.06851  -0.20256
N          N       0.74250   0.46434   0.07504  -0.16847
N          N       0.81066   0.56845   0.15999  -0.23037
N          N       0.97211   0.41959   0.23701  -0.32812
N          N       0.15039   0.31616   0.35502  -0.26416
N          N       0.01076   0.21125   0.28525  -0.21020
N          N       0.20693   0.69327   0.43302  -0.19239
N          N       0.54597   0.35674   0.99575  -0.38393
N          N       0.74701   0.46806   0.92786  -0.16656
N          N       0.69623   0.56908   0.83844  -0.23578
N          N       0.52757   0.42035   0.76370  -0.33040
N          N       0.35410   0.31680   0.64443  -0.26836
N          N       0.48971   0.21142   0.71483  -0.21572
N          N       0.28063   0.69291   0.56852  -0.20247
N          N       0.25751   0.53567   0.92496  -0.16814
N          N       0.18936   0.43155   0.84001  -0.23042
N          N       0.02789   0.58041   0.76299  -0.32769
N          N       0.84962   0.68385   0.64498  -0.26455
N          N       0.98924   0.78875   0.71475  -0.20972
N          N       0.79308   0.30674   0.56698  -0.19267
N          N       0.45404   0.64328   0.00425  -0.38446
N          N       0.25300   0.53195   0.07213  -0.16657
N          N       0.30378   0.43092   0.16155  -0.23605
N          N       0.47245   0.57966   0.23630  -0.32990
N          N       0.64593   0.68321   0.35556  -0.26855
N          N       0.51029   0.78859   0.28517  -0.21522
N          N       0.71937   0.30710   0.43148  -0.20239
N          N       0.24249   0.03566   0.42497  -0.16834
N          N       0.31064   0.93155   0.34002  -0.23032
N          N       0.47209   0.08041   0.26299  -0.32771
N          N       0.65034   0.18383   0.14496  -0.26429
N          N       0.51078   0.28875   0.21475  -0.21006
N          N       0.70695   0.80674   0.06698  -0.19251
N          N       0.04600   0.14327   0.50425  -0.38451
N          N       0.24701   0.03195   0.57215  -0.16616
N          N       0.19621   0.93093   0.66156  -0.23627
N          N       0.02755   0.07966   0.73630  -0.32963
N          N       0.85404   0.18321   0.85556  -0.26886
N          N       0.98970   0.28859   0.78517  -0.21489
N          N       0.78066   0.80709   0.93148  -0.20285

