data_crystal

_audit_creation_method 'AiiDA-DDEC plugin'

_cell_length_a        15.93336
_cell_length_b        15.92940
_cell_length_c        20.15448

_cell_angle_alpha     84.53780
_cell_angle_beta     84.55341
_cell_angle_gamma     70.73729

_symmetry_space_group_name_Hall 'P 1'
_symmetry_space_group_name_H-M  'P 1'

loop_
_symmetry_equiv_pos_as_xyz
 'x,y,z'

loop_
_atom_site_label
_atom_site_type_symbol
_atom_site_fract_x
_atom_site_fract_y
_atom_site_fract_z
_atom_site_charge
Cd         Cd      0.32604   0.27185   0.19177   0.86486
Cd         Cd      0.17424   0.18061   0.27585   1.00184
Cd         Cd      0.72808   0.67471   0.30851   0.86201
Cd         Cd      0.81983   0.82500   0.22427   0.99713
Cd         Cd      0.67396   0.72815   0.80823   0.86485
Cd         Cd      0.82576   0.81939   0.72415   1.00183
Cd         Cd      0.27192   0.32529   0.69149   0.86203
Cd         Cd      0.18017   0.17500   0.77573   0.99708
H          H       0.15597   0.03366   0.10484   0.09971
H          H       0.24465   0.93233   0.10598   0.08245
H          H       0.22679   0.92091   0.99128   0.05806
H          H       0.13908   0.02131   0.99175   0.08761
H          H       0.33578   0.99138   0.95544   0.08913
H          H       0.33735   0.18482   0.94284   0.12817
H          H       0.36223   0.18247   0.02800   0.12401
H          H       0.41552   0.08893   0.97960   0.11999
H          H       0.13066   0.16630   0.03502   0.12362
H          H       0.19358   0.23598   0.04797   0.13148
H          H       0.17421   0.22098   0.96530   0.12915
H          H       0.38522   0.94140   0.13256   0.11815
H          H       0.40005   0.93819   0.04467   0.11376
H          H       0.43111   0.01726   0.08526   0.13473
H          H       0.37252   0.01758   0.36613   0.09195
H          H       0.38522   0.06611   0.43786   0.09599
H          H       0.51040   0.93679   0.46675   0.08151
H          H       0.47493   0.88437   0.40747   0.09229
H          H       0.62649   0.95761   0.39473   0.09940
H          H       0.59026   0.11619   0.24917   0.13748
H          H       0.67965   0.00790   0.25309   0.12722
H          H       0.55297   0.94201   0.21561   0.13777
H          H       0.45137   0.18892   0.41957   0.12958
H          H       0.55110   0.09791   0.42704   0.12484
H          H       0.54214   0.17938   0.35854   0.12875
H          H       0.23292   0.45716   0.41236   0.12212
H          H       0.25560   0.33279   0.33979   0.10821
H          H       0.33985   0.46967   0.17634   0.08785
H          H       0.31945   0.60147   0.24160   0.11640
H          H       0.18516   0.90470   0.46171   0.12248
H          H       0.16034   0.06107   0.41716   0.09453
H          H       0.23516   0.98687   0.22378   0.10007
H          H       0.26604   0.82539   0.25912   0.11502
H          H       0.16583   0.64856   0.56278   0.12699
H          H       0.18388   0.53281   0.65743   0.10577
H          H       0.38712   0.34901   0.55305   0.11027
H          H       0.38203   0.45803   0.45423   0.12611
H          H       0.24297   0.74533   0.48905   0.30130
H          H       0.96508   0.84491   0.39580   0.10041
H          H       0.06669   0.75680   0.39433   0.08129
H          H       0.07794   0.77463   0.50923   0.05901
H          H       0.97662   0.86110   0.50889   0.08584
H          H       0.00865   0.66392   0.54425   0.08936
H          H       0.81370   0.66309   0.55639   0.12818
H          H       0.81734   0.63796   0.47122   0.12227
H          H       0.90987   0.58431   0.52050   0.11995
H          H       0.83328   0.86936   0.46527   0.12348
H          H       0.76358   0.80637   0.45252   0.13073
H          H       0.77930   0.82533   0.53514   0.12848
H          H       0.05910   0.61451   0.36819   0.11892
H          H       0.06160   0.60042   0.45619   0.11347
H          H       0.98275   0.56914   0.41538   0.13478
H          H       0.98312   0.62708   0.13125   0.09200
H          H       0.93509   0.61252   0.05994   0.09638
H          H       0.06471   0.48705   0.03280   0.08193
H          H       0.11655   0.52337   0.09209   0.09269
H          H       0.04230   0.37229   0.10570   0.09940
H          H       0.88254   0.41177   0.25041   0.13848
H          H       0.98994   0.32124   0.24700   0.12871
H          H       0.05745   0.44736   0.28429   0.13795
H          H       0.81176   0.54782   0.07909   0.12972
H          H       0.90223   0.44731   0.07328   0.12547
H          H       0.81992   0.45868   0.14130   0.12802
H          H       0.54276   0.76703   0.08756   0.12212
H          H       0.66728   0.74453   0.15989   0.10808
H          H       0.53037   0.66127   0.32379   0.08864
H          H       0.39860   0.68128   0.25867   0.11715
H          H       0.09549   0.81409   0.03835   0.12234
H          H       0.93934   0.83816   0.08293   0.09458
H          H       0.01388   0.76372   0.27636   0.10001
H          H       0.17524   0.73345   0.24086   0.11660
H          H       0.35144   0.83306   0.93738   0.12682
H          H       0.46724   0.81472   0.84268   0.10647
H          H       0.65145   0.61273   0.94779   0.10827
H          H       0.54216   0.61769   0.04648   0.12742
H          H       0.25494   0.75600   0.01100   0.30298
H          H       0.84403   0.96634   0.89516   0.09960
H          H       0.75535   0.06767   0.89402   0.08247
H          H       0.77321   0.07909   0.00872   0.05802
H          H       0.86091   0.97869   0.00825   0.08756
H          H       0.66422   0.00862   0.04456   0.08918
H          H       0.66265   0.81518   0.05716   0.12822
H          H       0.63777   0.81753   0.97200   0.12403
H          H       0.58448   0.91107   0.02041   0.12004
H          H       0.86934   0.83370   0.96498   0.12346
H          H       0.80642   0.76402   0.95203   0.13147
H          H       0.82579   0.77902   0.03470   0.12915
H          H       0.61478   0.05859   0.86744   0.11807
H          H       0.59995   0.06181   0.95533   0.11380
H          H       0.56889   0.98274   0.91474   0.13484
H          H       0.62747   0.98241   0.63388   0.09184
H          H       0.61478   0.93389   0.56214   0.09594
H          H       0.48960   0.06321   0.53325   0.08152
H          H       0.52507   0.11563   0.59253   0.09229
H          H       0.37350   0.04239   0.60527   0.09944
H          H       0.40974   0.88381   0.75083   0.13748
H          H       0.32035   0.99210   0.74691   0.12726
H          H       0.44703   0.05799   0.78439   0.13778
H          H       0.54863   0.81108   0.58044   0.12944
H          H       0.44890   0.90209   0.57296   0.12485
H          H       0.45786   0.82062   0.64146   0.12884
H          H       0.76708   0.54284   0.58764   0.12193
H          H       0.74439   0.66721   0.66021   0.10814
H          H       0.66015   0.53033   0.82366   0.08785
H          H       0.68055   0.39853   0.75840   0.11644
H          H       0.81484   0.09530   0.53829   0.12245
H          H       0.83966   0.93893   0.58284   0.09447
H          H       0.76483   0.01313   0.77622   0.10008
H          H       0.73396   0.17461   0.74088   0.11507
H          H       0.83416   0.35144   0.43722   0.12696
H          H       0.81612   0.46719   0.34257   0.10567
H          H       0.61288   0.65099   0.44695   0.11032
H          H       0.61797   0.54197   0.54577   0.12617
H          H       0.75702   0.25467   0.51096   0.30125
H          H       0.03492   0.15509   0.60420   0.10043
H          H       0.93330   0.24320   0.60567   0.08139
H          H       0.92206   0.22537   0.49077   0.05903
H          H       0.02338   0.13890   0.49111   0.08581
H          H       0.99135   0.33608   0.45575   0.08933
H          H       0.18629   0.33691   0.44361   0.12812
H          H       0.18266   0.36204   0.52878   0.12229
H          H       0.09013   0.41569   0.47950   0.11999
H          H       0.16671   0.13064   0.53473   0.12356
H          H       0.23641   0.19363   0.54749   0.13068
H          H       0.22069   0.17467   0.46486   0.12843
H          H       0.94090   0.38549   0.63181   0.11899
H          H       0.93839   0.39958   0.54382   0.11346
H          H       0.01724   0.43086   0.58462   0.13472
H          H       0.01688   0.37292   0.86875   0.09208
H          H       0.06491   0.38748   0.94007   0.09645
H          H       0.93529   0.51295   0.96720   0.08197
H          H       0.88345   0.47663   0.90791   0.09278
H          H       0.95770   0.62771   0.89430   0.09920
H          H       0.11746   0.58823   0.74959   0.13845
H          H       0.01005   0.67876   0.75301   0.12872
H          H       0.94255   0.55264   0.71572   0.13804
H          H       0.18824   0.45218   0.92091   0.12974
H          H       0.09777   0.55269   0.92672   0.12553
H          H       0.18008   0.54132   0.85870   0.12798
H          H       0.45724   0.23297   0.91244   0.12215
H          H       0.33272   0.25547   0.84011   0.10816
H          H       0.46963   0.33873   0.67621   0.08861
H          H       0.60140   0.31872   0.74133   0.11711
H          H       0.90450   0.18591   0.96165   0.12245
H          H       0.06066   0.16184   0.91708   0.09460
H          H       0.98612   0.23628   0.72364   0.09992
H          H       0.82476   0.26655   0.75915   0.11655
H          H       0.64856   0.16694   0.06262   0.12679
H          H       0.53275   0.18528   0.15732   0.10645
H          H       0.34855   0.38727   0.05221   0.10831
H          H       0.45784   0.38231   0.95352   0.12742
H          H       0.74506   0.24400   0.98900   0.30304
C          C       0.27528   0.10769   0.01095   0.21430
C          C       0.28640   0.04985   0.07998   0.02424
C          C       0.21958   0.99791   0.07897  -0.21129
C          C       0.20854   0.99016   0.00439  -0.16417
C          C       0.26805   0.03891   0.96374  -0.16151
C          C       0.35285   0.14304   0.98930  -0.44377
C          C       0.18781   0.18718   0.01509  -0.44134
C          C       0.23859   0.07299   0.89342   0.57454
C          C       0.26730   0.11278   0.13724   0.58440
C          C       0.38157   0.98318   0.08557  -0.41450
C          C       0.54602   0.01509   0.31274   0.10406
C          C       0.46861   0.08748   0.34932   0.05307
C          C       0.42187   0.03017   0.39464  -0.20237
C          C       0.49509   0.94218   0.41433  -0.17160
C          C       0.57871   0.93951   0.36744  -0.14083
C          C       0.60800   0.04378   0.25789  -0.29619
C          C       0.54602  -0.00054   0.24282  -0.13588
C          C       0.40692   0.15245   0.29992   0.57640
C          C       0.63088   0.84752   0.34438   0.60214
C          C       0.50592   0.14173   0.39098  -0.41974
C          C       0.26866   0.61573   0.37188   0.07323
C          C       0.26301   0.62576   0.44093   0.07288
C          C       0.24423   0.75689   0.38223   0.27017
C          C       0.27909   0.53874   0.33395   0.09298
C          C       0.25911   0.46240   0.36094  -0.18246
C          C       0.27144   0.39253   0.32063   0.09965
C          C       0.31779   0.46936   0.22916   0.08597
C          C       0.30725   0.54213   0.26566  -0.17514
C          C       0.22900   0.85081   0.36379   0.04706
C          C       0.19910   0.91867   0.40864  -0.17994
C          C       0.18451   0.00674   0.38407   0.10197
C          C       0.22669   0.96482   0.27594   0.09285
C          C       0.24315   0.87555   0.29582  -0.15152
C          C       0.27226   0.56288   0.49926   0.07613
C          C       0.21742   0.58399   0.55842  -0.18648
C          C       0.22659   0.51967   0.61151   0.10310
C          C       0.34069   0.41685   0.55296   0.07871
C          C       0.33651   0.47727   0.49801  -0.17938
C          C       0.89203   0.72457   0.48908   0.21343
C          C       0.95009   0.71360   0.42022   0.02399
C          C       0.00116   0.78118   0.42141  -0.20978
C          C       0.00883   0.79188   0.49605  -0.16265
C          C       0.96082   0.73154   0.53638  -0.16199
C          C       0.85624   0.64721   0.51034  -0.44148
C          C       0.81261   0.81209   0.48519  -0.44043
C          C       0.92648   0.76012   0.60679   0.57488
C          C       0.88815   0.73158   0.36253   0.58245
C          C       0.01705   0.61852   0.41505  -0.41536
C          C       0.98461   0.45433   0.18693   0.10555
C          C       0.91277   0.53156   0.14965   0.05023
C          C       0.97070   0.57691   0.10359  -0.20265
C          C       0.05882   0.50312   0.08506  -0.17293
C          C       0.06053   0.42027   0.13270  -0.14151
C          C       0.95504   0.39310   0.24191  -0.29855
C          C       0.00009   0.45442   0.25681  -0.13038
C          C       0.84813   0.59516   0.19825   0.57725
C          C       0.15212   0.36760   0.15652   0.60130
C          C       0.85832   0.49377   0.10852  -0.41813
C          C       0.38432   0.73129   0.12821   0.07321
C          C       0.37436   0.73637   0.05923   0.07246
C          C       0.24328   0.75539   0.11779   0.27213
C          C       0.46127   0.72114   0.16614   0.09280
C          C       0.53757   0.74104   0.13902  -0.18163
C          C       0.60752   0.72887   0.17923   0.09887
C          C       0.53071   0.68299   0.27091   0.08578
C          C       0.45792   0.69335   0.23448  -0.17567
C          C       0.14947   0.77035   0.13626   0.04768
C          C       0.08163   0.79998   0.09142  -0.17991
C          C       0.99366   0.81422   0.11603   0.10451
C          C       0.03575   0.77229   0.22418   0.09382
C          C       0.12495   0.75612   0.20424  -0.15537
C          C       0.43730   0.72696   0.00101   0.07533
C          C       0.41608   0.78159   0.94179  -0.18449
C          C       0.48041   0.77235   0.88877   0.10006
C          C       0.58349   0.65885   0.94767   0.08360
C          C       0.52298   0.66294   0.00254  -0.18255
C          C       0.72472   0.89231   0.98905   0.21445
C          C       0.71360   0.95015   0.92002   0.02395
C          C       0.78042   0.00209   0.92104  -0.21132
C          C       0.79146   0.00984   0.99561  -0.16407
C          C       0.73195   0.96109   0.03626  -0.16148
C          C       0.64715   0.85696   0.01070  -0.44379
C          C       0.81219   0.81282   0.98491  -0.44129
C          C       0.76140   0.92701   0.10658   0.57454
C          C       0.73269   0.88722   0.86276   0.58442
C          C       0.61843   0.01682   0.91443  -0.41444
C          C       0.45398   0.98491   0.68726   0.10407
C          C       0.53139   0.91252   0.65068   0.05305
C          C       0.57813   0.96983   0.60536  -0.20231
C          C       0.50491   0.05782   0.58567  -0.17175
C          C       0.42129   0.06049   0.63257  -0.14081
C          C       0.39199   0.95622   0.74212  -0.29604
C          C       0.45398   0.00054   0.75718  -0.13598
C          C       0.59308   0.84755   0.70008   0.57628
C          C       0.36912   0.15248   0.65562   0.60214
C          C       0.49408   0.85827   0.60902  -0.41966
C          C       0.73134   0.38427   0.62812   0.07313
C          C       0.73699   0.37424   0.55907   0.07289
C          C       0.75577   0.24311   0.61777   0.27006
C          C       0.72091   0.46126   0.66605   0.09305
C          C       0.74089   0.53760   0.63906  -0.18237
C          C       0.72856   0.60747   0.67937   0.09960
C          C       0.68221   0.53064   0.77085   0.08612
C          C       0.69274   0.45787   0.73434  -0.17514
C          C       0.77100   0.14919   0.63621   0.04710
C          C       0.80090   0.08133   0.59137  -0.18002
C          C       0.81549   0.99326   0.61593   0.10205
C          C       0.77331   0.03518   0.72406   0.09298
C          C       0.75685   0.12445   0.70418  -0.15158
C          C       0.72773   0.43712   0.50075   0.07626
C          C       0.78258   0.41601   0.44158  -0.18654
C          C       0.77341   0.48033   0.38849   0.10317
C          C       0.65931   0.58315   0.44704   0.07875
C          C       0.66349   0.52273   0.50199  -0.17934
C          C       0.10797   0.27543   0.51092   0.21338
C          C       0.04991   0.28640   0.57978   0.02401
C          C      -0.00116   0.21882   0.57859  -0.20976
C          C       0.99117   0.20812   0.50395  -0.16255
C          C       0.03918   0.26846   0.46362  -0.16192
C          C       0.14376   0.35279   0.48966  -0.44161
C          C       0.18739   0.18791   0.51481  -0.44046
C          C       0.07352   0.23988   0.39321   0.57500
C          C       0.11185   0.26842   0.63747   0.58249
C          C       0.98295   0.38148   0.58495  -0.41531
C          C       0.01539   0.54567   0.81308   0.10543
C          C       0.08723   0.46844   0.85035   0.05037
C          C       0.02930   0.42309   0.89641  -0.20284
C          C       0.94118   0.49688   0.91494  -0.17300
C          C       0.93947   0.57973   0.86730  -0.14100
C          C       0.04496   0.60690   0.75809  -0.29870
C          C      -0.00009   0.54558   0.74319  -0.13040
C          C       0.15187   0.40484   0.80176   0.57730
C          C       0.84788   0.63240   0.84349   0.60097
C          C       0.14168   0.50623   0.89148  -0.41822
C          C       0.61568   0.26871   0.87179   0.07329
C          C       0.62564   0.26363   0.94077   0.07251
C          C       0.75672   0.24461   0.88221   0.27210
C          C       0.53873   0.27886   0.83386   0.09282
C          C       0.46243   0.25896   0.86098  -0.18158
C          C       0.39248   0.27113   0.82078   0.09889
C          C       0.46929   0.31701   0.72909   0.08566
C          C       0.54208   0.30665   0.76552  -0.17574
C          C       0.85053   0.22965   0.86374   0.04774
C          C       0.91837   0.20002   0.90858  -0.18000
C          C       0.00634   0.18578   0.88397   0.10455
C          C       0.96425   0.22771   0.77582   0.09387
C          C       0.87505   0.24388   0.79576  -0.15535
C          C       0.56270   0.27304  -0.00101   0.07522
C          C       0.58392   0.21841   0.05821  -0.18454
C          C       0.51958   0.22765   0.11123   0.10010
C          C       0.41651   0.34115   0.05233   0.08360
C          C       0.47702   0.33706   0.99746  -0.18253
N          N       0.25772   0.69673   0.33739  -0.35228
N          N       0.24617   0.71624   0.44574  -0.28730
N          N       0.30155   0.39514   0.25596  -0.23272
N          N       0.19783   0.03009   0.31890  -0.24067
N          N       0.28663   0.43712   0.60901  -0.23468
N          N       0.30331   0.74238   0.16264  -0.35314
N          N       0.28398   0.75301   0.05431  -0.28808
N          N       0.60497   0.69899   0.24396  -0.23288
N          N       0.97046   0.80091   0.18124  -0.24007
N          N       0.56307   0.71263   0.89150  -0.23302
N          N       0.74228   0.30327   0.66261  -0.35210
N          N       0.75382   0.28376   0.55426  -0.28731
N          N       0.69844   0.60486   0.74404  -0.23270
N          N       0.80217   0.96991   0.68111  -0.24065
N          N       0.71337   0.56288   0.39099  -0.23485
N          N       0.69668   0.25762   0.83736  -0.35325
N          N       0.71602   0.24699   0.94569  -0.28816
N          N       0.39503   0.30101   0.75604  -0.23281
N          N       0.02954   0.19909   0.81876  -0.24023
N          N       0.43693   0.28737   0.10850  -0.23289
O          O       0.19525   0.12418   0.17482  -0.57542
O          O       0.32579   0.14934   0.14205  -0.55409
O          O       0.19586   0.03422   0.86499  -0.58662
O          O       0.25924   0.14073   0.86560  -0.55420
O          O       0.32515   0.15828   0.30276  -0.60615
O          O       0.44133   0.20038   0.25902  -0.56099
O          O       0.68016   0.84091   0.28968  -0.61000
O          O       0.62480   0.77959   0.38062  -0.56854
O          O       0.87527   0.80443   0.32579  -0.57369
O          O       0.85415   0.67137   0.35626  -0.55465
O          O       0.96620   0.80053   0.63673  -0.58593
O          O       0.85703   0.74161   0.63308  -0.55485
O          O       0.84208   0.67698   0.19243  -0.60385
O          O       0.80117   0.56205   0.24112  -0.55993
O          O       0.15816   0.32009   0.21208  -0.61176
O          O       0.22037   0.37178   0.11993  -0.56621
O          O       0.80475   0.87582   0.82518  -0.57546
O          O       0.67421   0.85066   0.85795  -0.55402
O          O       0.80414   0.96578   0.13501  -0.58669
O          O       0.74076   0.85927   0.13440  -0.55411
O          O       0.67485   0.84172   0.69724  -0.60622
O          O       0.55867   0.79962   0.74098  -0.56082
O          O       0.31984   0.15909   0.71032  -0.60985
O          O       0.37520   0.22041   0.61938  -0.56867
O          O       0.12473   0.19557   0.67421  -0.57364
O          O       0.14585   0.32863   0.64374  -0.55471
O          O       0.03380   0.19947   0.36327  -0.58587
O          O       0.14297   0.25839   0.36692  -0.55512
O          O       0.15792   0.32302   0.80758  -0.60379
O          O       0.19883   0.43795   0.75888  -0.56014
O          O       0.84183   0.67991   0.78792  -0.61184
O          O       0.77963   0.62822   0.88007  -0.56595

