data_crystal

_audit_creation_method 'AiiDA-DDEC plugin'

_cell_length_a        19.48062
_cell_length_b        25.65471
_cell_length_c        28.58320

_cell_angle_alpha     90.02992
_cell_angle_beta     95.14290
_cell_angle_gamma     89.77354

_symmetry_space_group_name_Hall 'P 1'
_symmetry_space_group_name_H-M  'P 1'

loop_
_symmetry_equiv_pos_as_xyz
 'x,y,z'

loop_
_atom_site_label
_atom_site_type_symbol
_atom_site_fract_x
_atom_site_fract_y
_atom_site_fract_z
_atom_site_charge
Zn         Zn      0.17529   0.39180   0.44108   0.95570
Zn         Zn      0.29712   0.45020   0.49933   0.94205
Zn         Zn      0.17498   0.40296   0.55435   0.97418
Zn         Zn      0.29002   0.32955   0.50801   0.96603
Zn         Zn      0.32505   0.89141   0.05896   0.95593
Zn         Zn      0.20290   0.95142   0.00091   0.94988
Zn         Zn      0.32520   0.90276   0.94571   0.97461
Zn         Zn      0.20941   0.83111   0.99170   0.96376
Zn         Zn      0.82508   0.60845   0.55866   0.95656
Zn         Zn      0.70274   0.55029   0.50134   0.94372
Zn         Zn      0.82474   0.59733   0.44544   0.97477
Zn         Zn      0.70990   0.67037   0.49107   0.96549
Zn         Zn      0.67507   0.11039   0.93952   0.96283
Zn         Zn      0.79733   0.05083   0.99872   0.94656
Zn         Zn      0.67513   0.10025   0.05268   0.97257
Zn         Zn      0.79069   0.17105   0.00820   0.96144
H          H       0.96777   0.34673   0.42365   0.12366
H          H       0.83912   0.34556   0.41171   0.12018
H          H       0.82842   0.44481   0.53196   0.11325
H          H       0.95773   0.44470   0.54487   0.12556
H          H       0.63727   0.30645   0.52239   0.12587
H          H       0.50912   0.30703   0.52510   0.11870
H          H       0.50001   0.46202   0.46790   0.11963
H          H       0.62614   0.45960   0.46118   0.11947
H          H       0.36419   0.53411   0.63551   0.13152
H          H       0.36539   0.57183   0.71546   0.15054
H          H       0.14293   0.58728   0.69748   0.13492
H          H       0.14083   0.55411   0.61624   0.12480
H          H       0.18896   0.65971   0.81664   0.11674
H          H       0.17647   0.73181   0.87472   0.12530
H          H       0.38024   0.78520   0.85348   0.12246
H          H       0.39660   0.70819   0.80139   0.12497
H          H       0.28587   0.58373   0.42376   0.11185
H          H       0.28860   0.65706   0.36633   0.12450
H          H       0.19024   0.56043   0.25772   0.11452
H          H       0.18553   0.48685   0.31538   0.12222
H          H       0.32112   0.72552   0.23533   0.13584
H          H       0.33963   0.78526   0.16893   0.13375
H          H       0.18381   0.70538   0.08023   0.13139
H          H       0.16480   0.64418   0.14650   0.12791
H          H       0.53275   0.85154   0.07741   0.12457
H          H       0.66128   0.85161   0.08973   0.11881
H          H       0.67006   0.94555   0.96588   0.11235
H          H       0.54087   0.94435   0.95313   0.12549
H          H       0.86228   0.81061   0.97769   0.12676
H          H       0.99058   0.80947   0.97584   0.11920
H          H       0.00123   0.96325   0.03551   0.11971
H          H       0.87503   0.96250   0.04146   0.12019
H          H       0.13604   0.03279   0.86349   0.13090
H          H       0.13516   0.06960   0.78308   0.14730
H          H       0.35707   0.08678   0.80214   0.13547
H          H       0.35892   0.05378   0.88345   0.12546
H          H       0.30950   0.15844   0.68277   0.11675
H          H       0.32219   0.23016   0.62450   0.12429
H          H       0.12052   0.28747   0.64779   0.12340
H          H       0.10363   0.21088   0.70010   0.12364
H          H       0.21852   0.08339   0.07517   0.11242
H          H       0.21338   0.15696   0.13229   0.12477
H          H       0.31070   0.06088   0.24212   0.11245
H          H       0.31741   0.98700   0.18479   0.12240
H          H       0.18028   0.22825   0.26301   0.13710
H          H       0.16230   0.28790   0.32993   0.13303
H          H       0.31602   0.20524   0.41866   0.13152
H          H       0.33473   0.14399   0.35205   0.12856
H          H       0.03148   0.65185   0.57543   0.12429
H          H       0.16004   0.65285   0.58836   0.11959
H          H       0.17254   0.55535   0.46713   0.11035
H          H       0.04328   0.55550   0.45335   0.12487
H          H       0.36243   0.69254   0.47744   0.12626
H          H       0.49060   0.69237   0.47500   0.12153
H          H       0.50046   0.53812   0.53381   0.12028
H          H       0.37425   0.54015   0.54008   0.11939
H          H       0.63571   0.46652   0.36517   0.13164
H          H       0.63489   0.43007   0.28477   0.14723
H          H       0.85734   0.41312   0.30355   0.13556
H          H       0.85878   0.44566   0.38489   0.12597
H          H       0.81118   0.34445   0.18148   0.11690
H          H       0.82411   0.27177   0.12409   0.12410
H          H       0.62184   0.21662   0.14709   0.12296
H          H       0.60477   0.29401   0.19846   0.12370
H          H       0.71748   0.41644   0.57549   0.11201
H          H       0.71330   0.34316   0.63294   0.12460
H          H       0.81054   0.43973   0.74205   0.11498
H          H       0.81674   0.51320   0.68437   0.12202
H          H       0.67940   0.27599   0.76416   0.14013
H          H       0.66126   0.21616   0.83068   0.13357
H          H       0.81445   0.29814   0.92000   0.13157
H          H       0.83314   0.35933   0.85350   0.12954
H          H       0.46640   0.15512   0.92184   0.12540
H          H       0.33778   0.15445   0.90965   0.11920
H          H       0.32998   0.05615   0.03082   0.11466
H          H       0.45920   0.05822   0.04392   0.12454
H          H       0.13754   0.19377   0.02100   0.12672
H          H       0.00948   0.19388   0.02430   0.11845
H          H       0.00016   0.03861   0.96765   0.11901
H          H       0.12608   0.04062   0.95990   0.11896
H          H       0.86263   0.97293   0.13686   0.13066
H          H       0.86422   0.93353   0.21615   0.14702
H          H       0.64319   0.91311   0.19594   0.13835
H          H       0.64089   0.94958   0.11572   0.12583
H          H       0.69016   0.84227   0.31558   0.11644
H          H       0.67557   0.77036   0.37323   0.12421
H          H       0.87709   0.71176   0.35113   0.12272
H          H       0.89578   0.78833   0.29927   0.12443
H          H       0.78327   0.91600   0.92442   0.11138
H          H       0.78813   0.84298   0.86672   0.12449
H          H       0.68965   0.93984   0.75790   0.11506
H          H       0.68273   0.01301   0.81587   0.12193
H          H       0.82146   0.77327   0.73523   0.13703
H          H       0.83859   0.71348   0.66855   0.13302
H          H       0.68413   0.79614   0.58018   0.13116
H          H       0.66638   0.85734   0.64687   0.12811
C          C       0.04729   0.39802   0.48991   0.59879
C          C       0.97033   0.39643   0.48449  -0.03857
C          C       0.93690   0.36807   0.44714  -0.09242
C          C       0.86531   0.36764   0.44044  -0.11101
C          C       0.82623   0.39629   0.47061  -0.00214
C          C       0.85952   0.42344   0.50868  -0.10754
C          C       0.93131   0.42337   0.51573  -0.08980
C          C       0.75008   0.39649   0.46189   0.37036
C          C       0.64016   0.38281   0.49120   0.25320
C          C       0.60651   0.33983   0.50961  -0.17547
C          C       0.53532   0.34029   0.51136  -0.08405
C          C       0.49633   0.38449   0.49664  -0.07043
C          C       0.53005   0.42770   0.47908  -0.07532
C          C       0.60065   0.42661   0.47562  -0.18487
C          C       0.42083   0.38664   0.49987   0.59528
C          C       0.24795   0.49909   0.58474   0.55221
C          C       0.25449   0.55008   0.61440   0.16413
C          C       0.31732   0.54855   0.64918  -0.08709
C          C       0.31807   0.56958   0.69241  -0.16955
C          C       0.25456   0.58896   0.71041   0.31806
C          C       0.19034   0.57865   0.68151  -0.15603
C          C       0.18933   0.56139   0.63693  -0.12458
C          C       0.30709   0.63124   0.77864   0.48572
C          C       0.29391   0.67916   0.80634  -0.01269
C          C       0.23079   0.68683   0.82564  -0.10829
C          C       0.22367   0.72721   0.85749  -0.09663
C          C       0.27792   0.76247   0.86778  -0.04126
C          C       0.33934   0.75693   0.84592  -0.09003
C          C       0.34803   0.71459   0.81656  -0.10704
C          C       0.27155   0.80418   0.90356   0.60206
C          C       0.23226   0.48873   0.40852   0.59502
C          C       0.23546   0.53083   0.37296  -0.04398
C          C       0.26552   0.57866   0.38740  -0.08419
C          C       0.26720   0.61938   0.35561  -0.09933
C          C       0.23996   0.61297   0.30880  -0.01102
C          C       0.21133   0.56480   0.29403  -0.10303
C          C       0.20855   0.52401   0.32608  -0.09531
C          C       0.24097   0.65933   0.27723   0.45159
C          C       0.23936   0.68151   0.19616   0.25945
C          C       0.29148   0.72128   0.20159  -0.12222
C          C       0.30162   0.75431   0.16482  -0.10005
C          C       0.26162   0.74958   0.12125   0.00028
C          C       0.21306   0.70891   0.11429  -0.09898
C          C       0.20252   0.67534   0.15062  -0.12132
C          C       0.26837   0.78910   0.08366   0.58361
C          C       0.45261   0.89962   0.00970   0.59652
C          C       0.52946   0.89886   0.01518  -0.03868
C          C       0.56331   0.87213   0.05341  -0.09312
C          C       0.63482   0.87242   0.06026  -0.10926
C          C       0.67347   0.90006   0.02932  -0.00308
C          C       0.63967   0.92526   0.99014  -0.10684
C          C       0.56791   0.92458   0.98303  -0.08789
C          C       0.74962   0.90047   0.03832   0.36775
C          C       0.86002   0.88655   0.00976   0.25401
C          C       0.89342   0.84332   0.99119  -0.17860
C          C       0.96467   0.84288   0.98985  -0.08074
C          C       0.00407   0.88642   0.00523  -0.07366
C          C       0.97076   0.92959   0.02358  -0.07501
C          C       0.90005   0.92938   0.02661  -0.18488
C          C       0.07929   0.88811   0.00100   0.59608
C          C       0.25202  -0.00092   0.91511   0.55221
C          C       0.24530   0.04969   0.88494   0.16256
C          C       0.18277   0.04741   0.84996  -0.08702
C          C       0.18209   0.06797   0.80659  -0.16770
C          C       0.24525   0.08811   0.78897   0.32381
C          C       0.30961   0.07789   0.81788  -0.15945
C          C       0.31052   0.06068   0.86246  -0.12273
C          C       0.19152   0.13250   0.72215   0.48999
C          C       0.20524   0.17986   0.69409  -0.01208
C          C       0.26806   0.18623   0.67419  -0.10746
C          C       0.27547   0.22647   0.64234  -0.09651
C          C       0.22202   0.26282   0.63263  -0.03993
C          C       0.16093   0.25849   0.65500  -0.09212
C          C       0.15188   0.21634   0.68439  -0.10579
C          C       0.22860   0.30429   0.59675   0.60233
C          C       0.27216   0.98845   0.09166   0.59445
C          C       0.26831   0.03087   0.12673  -0.04547
C          C       0.23815   0.07860   0.11170  -0.08442
C          C       0.23524   0.11940   0.14327  -0.09959
C          C       0.26160   0.11319   0.19029  -0.01062
C          C       0.29051   0.06513   0.20560  -0.10178
C          C       0.29434   0.02419   0.17381  -0.09434
C          C       0.25938   0.15985   0.22136   0.45142
C          C       0.26086   0.18261   0.30244   0.25896
C          C       0.20939   0.22320   0.29691  -0.12637
C          C       0.19963   0.25621   0.33382  -0.09772
C          C       0.23919   0.25047   0.37749   0.00086
C          C       0.28710   0.20916   0.38450  -0.10064
C          C       0.29739   0.17566   0.34803  -0.12163
C          C       0.23230   0.28945   0.41543   0.58235
C          C       0.95280   0.60171   0.50856   0.59746
C          C       0.02979   0.60285   0.51425  -0.04098
C          C       0.06276   0.63072   0.55208  -0.09274
C          C       0.13427   0.63101   0.55932  -0.10965
C          C       0.17377   0.60275   0.52916  -0.00266
C          C       0.14100   0.57618   0.49052  -0.10635
C          C       0.06924   0.57633   0.48297  -0.08543
C          C       0.24983   0.60279   0.53828   0.36833
C          C       0.35986   0.61658   0.50928   0.25309
C          C       0.39343   0.65945   0.49063  -0.17792
C          C       0.46467   0.65916   0.48903  -0.08390
C          C       0.50382   0.61519   0.50428  -0.07386
C          C       0.47018   0.57218   0.52223  -0.07614
C          C       0.39955   0.57311   0.52546  -0.18263
C          C       0.57929   0.61281   0.50115   0.59763
C          C       0.75259   0.50084   0.41615   0.55002
C          C       0.74531   0.45006   0.38633   0.16355
C          C       0.68263   0.45219   0.35145  -0.08848
C          C       0.68211   0.43178   0.30798  -0.16671
C          C       0.74571   0.41260   0.28990   0.31889
C          C       0.80977   0.42205   0.31922  -0.15544
C          C       0.81047   0.43879   0.36389  -0.12807
C          C       0.69351   0.37157   0.22092   0.48594
C          C       0.70676   0.32401   0.19273  -0.01009
C          C       0.76968   0.31689   0.17305  -0.10817
C          C       0.77711   0.27623   0.14154  -0.09547
C          C       0.72362   0.24021   0.13182  -0.03937
C          C       0.66233   0.24537   0.15395  -0.09212
C          C       0.65322   0.28797   0.18300  -0.10791
C          C       0.73101   0.19829   0.09633   0.60147
C          C       0.77090   0.51128   0.59121   0.59508
C          C       0.76735   0.46919   0.62664  -0.04559
C          C       0.73728   0.42145   0.61197  -0.08449
C          C       0.73489   0.38077   0.64371  -0.09845
C          C       0.76150   0.38728   0.69063  -0.01241
C          C       0.79019   0.43537   0.70560  -0.10392
C          C       0.79369   0.47608   0.67360  -0.09376
C          C       0.75971   0.34124   0.72242   0.45398
C          C       0.76025   0.32056   0.80364   0.26069
C          C       0.70861   0.28047   0.79807  -0.12607
C          C       0.69875   0.24745   0.83489  -0.09966
C          C       0.73830   0.25265   0.87862   0.00128
C          C       0.78575   0.29406   0.88579  -0.09955
C          C       0.79608   0.32766   0.84942  -0.12266
C          C       0.73193   0.21285   0.91607   0.58204
C          C       0.54722   0.10546   0.98892   0.59662
C          C       0.47028   0.10610   0.98322  -0.03824
C          C       0.43618   0.13354   0.94543  -0.09484
C          C       0.36461   0.13290   0.93856  -0.11013
C          C       0.32631   0.10410   0.96893  -0.00256
C          C       0.36031   0.07771   0.00731  -0.10931
C          C       0.43206   0.07886   0.01455  -0.08616
C          C       0.25011   0.10347   0.96026   0.37278
C          C       0.14024   0.11727   0.99000   0.25374
C          C       0.10671   0.16050   0.00848  -0.17753
C          C       0.03560   0.16040   0.01057  -0.08008
C          C       0.99666   0.11627   0.99617  -0.07304
C          C       0.03023   0.07284   0.97853  -0.07484
C          C       0.10071   0.07365   0.97463  -0.18595
C          C       0.92128   0.11457  -0.00038   0.59754
C          C       0.74812   0.00374   0.08395   0.54827
C          C       0.75449   0.95327   0.11411   0.16509
C          C       0.81659   0.95595   0.14940  -0.08810
C          C       0.81760   0.93411   0.19231  -0.16467
C          C       0.75488   0.91198   0.20902   0.32485
C          C       0.69048   0.92279   0.18036  -0.16119
C          C       0.68932   0.94181   0.13637  -0.12505
C          C       0.80822   0.86707   0.27579   0.49200
C          C       0.79428   0.82009   0.30454  -0.01128
C          C       0.73121   0.81412   0.32426  -0.10861
C          C       0.72285   0.77385   0.35597  -0.09518
C          C       0.77578   0.73709   0.36605  -0.04143
C          C       0.83718   0.74115   0.34397  -0.09113
C          C       0.84718   0.78328   0.31467  -0.10741
C          C       0.76859   0.69576   0.40212   0.60128
C          C       0.72928   0.01148   0.90856   0.59381
C          C       0.73292   0.96897   0.87339  -0.04599
C          C       0.76345   0.92118   0.88794  -0.08432
C          C       0.76622   0.88062   0.85602  -0.09995
C          C       0.73962   0.88719   0.80906  -0.00971
C          C       0.71027   0.93529   0.79429  -0.10518
C          C       0.70634   0.97587   0.82644  -0.09419
C          C       0.74165   0.84102   0.77733   0.45230
C          C       0.74054   0.81888   0.69620   0.25958
C          C       0.79188   0.77823   0.70151  -0.12602
C          C       0.80129   0.74516   0.66457  -0.09815
C          C       0.76154   0.75066   0.62093  -0.00065
C          C       0.71361   0.79205   0.61414  -0.10030
C          C       0.70370   0.82564   0.65069  -0.12204
C          C       0.76845   0.71108   0.58336   0.58256
N          N       0.71242   0.38209   0.49405  -0.36229
N          N       0.22157   0.64939   0.23011  -0.35513
N          N       0.24900   0.61521   0.74933  -0.40418
N          N       0.78772   0.88669   0.00613  -0.35998
N          N       0.27848   0.15026   0.26854  -0.35413
N          N       0.25021   0.11522   0.75047  -0.41189
N          N       0.28761   0.61702   0.50615  -0.36168
N          N       0.77867   0.35202   0.76948  -0.35591
N          N       0.75149   0.38716   0.25055  -0.40436
N          N       0.21248   0.11770   0.99255  -0.36607
N          N       0.72324   0.85134   0.73016  -0.35603
N          N       0.74973   0.88351   0.24673  -0.41457
O          O       0.23211   0.39291   0.50171  -1.01073
O          O       0.07725   0.38823   0.45280  -0.54967
O          O       0.72223   0.40613   0.41658  -0.27019
O          O       0.38951   0.34449   0.50912  -0.55357
O          O       0.39220   0.43163   0.49298  -0.54759
O          O       0.19466   0.47135   0.58794  -0.50597
O          O       0.29764   0.48956   0.56008  -0.52415
O          O       0.36337   0.60878   0.78443  -0.43033
O          O       0.22581   0.79698   0.93232  -0.54595
O          O       0.19742   0.44768   0.39734  -0.54072
O          O       0.26407   0.49766   0.44895  -0.55241
O          O       0.25319   0.70348   0.29389  -0.43427
O          O       0.22872   0.78374   0.04582  -0.54170
O          O       0.31221   0.82546   0.09280  -0.53685
O          O       0.07654   0.40909   0.53049  -0.54545
O          O       0.31262   0.84310   0.90285  -0.54956
O          O       0.26806   0.89333   0.99838  -1.01301
O          O       0.42283   0.88827   0.04645  -0.54877
O          O       0.77749   0.90908   0.08382  -0.27056
O          O       0.10976   0.84650   0.98891  -0.54984
O          O       0.10864   0.93243   0.00951  -0.55183
O          O       0.30539   0.97118   0.91206  -0.50349
O          O       0.20231   0.98984   0.93982  -0.52656
O          O       0.13418   0.11184   0.71769  -0.43086
O          O       0.27431   0.29676   0.56798  -0.54764
O          O       0.30552   0.94681   0.10400  -0.53621
O          O       0.24258   0.99751   0.05055  -0.55816
O          O       0.24674   0.20373   0.20410  -0.43449
O          O       0.26828   0.28150   0.45451  -0.54054
O          O       0.19166   0.32785   0.40524  -0.53675
O          O       0.42321   0.91140   0.96929  -0.54591
O          O       0.18748   0.34343   0.59729  -0.54864
O          O       0.76804   0.60728   0.49817  -1.01155
O          O       0.92284   0.61168   0.54566  -0.55062
O          O       0.27750   0.59377   0.58372  -0.27075
O          O       0.61076   0.65436   0.49073  -0.55548
O          O       0.60796   0.56797   0.50923  -0.54722
O          O       0.80537   0.52879   0.41200  -0.50481
O          O       0.70410   0.51008   0.44182  -0.52211
O          O       0.63713   0.39395   0.21544  -0.43072
O          O       0.77702   0.20567   0.06775  -0.54530
O          O       0.80587   0.55226   0.60247  -0.53962
O          O       0.73919   0.50251   0.55077  -0.55346
O          O       0.74693   0.29700   0.70614  -0.43660
O          O       0.76873   0.21931   0.95495  -0.53809
O          O       0.69100   0.17495   0.90531  -0.53851
O          O       0.92365   0.59101   0.46780  -0.54391
O          O       0.69067   0.15896   0.09698  -0.55189
O          O       0.73232   0.10903  -0.00006  -1.01215
O          O       0.57703   0.11430   0.95163  -0.54912
O          O       0.22219   0.09393   0.91490  -0.27023
O          O       0.89027   0.15682   0.00923  -0.54937
O          O       0.89225   0.06994   0.99260  -0.55177
O          O       0.69427   0.03140   0.08587  -0.50616
O          O       0.79857   0.01308   0.06003  -0.52102
O          O       0.86502   0.88836   0.28022  -0.42967
O          O       0.72228   0.70329   0.43046  -0.54450
O          O       0.69447   0.05257   0.89650  -0.53953
O          O       0.76074   0.00292   0.94923  -0.55391
O          O       0.75338   0.79670   0.79391  -0.43477
O          O       0.73293   0.71866   0.54403  -0.54141
O          O       0.80861   0.67253   0.59438  -0.53496
O          O       0.57646   0.09607   0.02997  -0.54402
O          O       0.80985   0.65668   0.40229  -0.55185

