data_crystal

_audit_creation_method 'AiiDA-DDEC plugin'

_cell_length_a         9.55278
_cell_length_b        11.62615
_cell_length_c        27.52599

_cell_angle_alpha     90.00000
_cell_angle_beta     90.00000
_cell_angle_gamma     114.17375

_symmetry_space_group_name_Hall 'P 1'
_symmetry_space_group_name_H-M  'P 1'

loop_
_symmetry_equiv_pos_as_xyz
 'x,y,z'

loop_
_atom_site_label
_atom_site_type_symbol
_atom_site_fract_x
_atom_site_fract_y
_atom_site_fract_z
_atom_site_charge
Cd         Cd      0.63942  -0.00051   0.49999   0.86707
Cd         Cd      0.36058   0.00051  -0.00001   0.86703
Cd         Cd      0.74572   0.49306   0.24953   0.89048
Cd         Cd      0.25429   0.50694   0.74953   0.89048
H          H       0.72532   0.60729   0.51307   0.10727
H          H       0.89802   0.49526   0.49953   0.12385
H          H       0.13962   0.76324   0.38849   0.11762
H          H       0.96656   0.87413   0.40224   0.10557
H          H       0.42425   0.66499   0.45243   0.12705
H          H       0.61047   0.66412   0.38842   0.10985
H          H       0.23922   0.51257   0.28590   0.11389
H          H       0.05495   0.51505   0.34876   0.13183
H          H       0.47902   0.22625   0.26079   0.14288
H          H       0.31206   0.24217   0.24065   0.15605
H          H       0.33848   0.10266   0.22601   0.14212
H          H       0.76300   0.46918   0.12539   0.12024
H          H       0.50726   0.31770   0.06947   0.13984
H          H       0.26685   0.12749   0.08914   0.11424
H          H       0.23055   0.07196   0.14930   0.09212
H          H       0.16254   0.25771   0.17012   0.08999
H          H       0.19518   0.30570   0.10923   0.09853
H          H       0.98425   0.10192   0.08240   0.10665
H          H       0.95105   0.04956   0.14300   0.09493
H          H       0.91876   0.28663   0.10533   0.10353
H          H       0.87753   0.22750   0.16480   0.09738
H          H       0.63135   0.01312   0.17765   0.13089
H          H       0.37703   0.89526   0.11753   0.12220
H          H       0.69086   0.16209   0.99146   0.15020
H          H       0.76571   0.29383   0.03125   0.15753
H          H       0.86798   0.19832   0.02139   0.15091
H          H       0.27468   0.39271   0.01308   0.10734
H          H       0.10198   0.50475  -0.00047   0.12380
H          H       0.86039   0.23677   0.88849   0.11761
H          H       0.03344   0.12587   0.90224   0.10554
H          H       0.57575   0.33501   0.95243   0.12692
H          H       0.38953   0.33588   0.88842   0.10980
H          H       0.76078   0.48743   0.78590   0.11400
H          H       0.94506   0.48496   0.84876   0.13192
H          H       0.52099   0.77376   0.76079   0.14273
H          H       0.68795   0.75784   0.74065   0.15609
H          H       0.66152   0.89734   0.72601   0.14221
H          H       0.23700   0.53082   0.62539   0.12021
H          H       0.49274   0.68230   0.56947   0.13981
H          H       0.73315   0.87251   0.58913   0.11436
H          H       0.76946   0.92804   0.64930   0.09208
H          H       0.83746   0.74229   0.67012   0.08977
H          H       0.80483   0.69430   0.60923   0.09855
H          H       0.01575   0.89808   0.58240   0.10681
H          H       0.04896   0.95044   0.64299   0.09488
H          H       0.08125   0.71337   0.60533   0.10355
H          H       0.12248   0.77250   0.66480   0.09727
H          H       0.36866   0.98688   0.67764   0.13085
H          H       0.62298   0.10474   0.61753   0.12227
H          H       0.30915   0.83791   0.49146   0.15035
H          H       0.23429   0.70617   0.53125   0.15751
H          H       0.13202   0.80168   0.52139   0.15081
H          H       0.88482   0.60982   0.98704   0.10744
H          H       0.60058   0.49649   0.00043   0.12403
H          H       0.62441   0.76363   0.11177   0.11717
H          H       0.90784   0.87546   0.09798   0.10425
H          H       0.24228   0.66463   0.04699   0.12706
H          H       0.05308   0.66335   0.11032   0.10962
H          H       0.27082   0.51222   0.21387   0.11357
H          H       0.45940   0.51464   0.15162   0.13204
H          H       0.74939   0.22896   0.23886   0.14327
H          H       0.93187   0.24453   0.25928   0.15619
H          H       0.76606   0.10481   0.27345   0.14245
H          H       0.70611   0.47145   0.37401   0.11951
H          H       0.80950   0.31963   0.43022   0.13971
H          H       0.86025   0.12886   0.41074   0.11433
H          H       0.84141   0.07343   0.35052   0.09302
H          H       0.09509   0.25869   0.32985   0.08995
H          H       0.11046   0.30656   0.39076   0.09849
H          H       0.11694   0.10213   0.41746   0.10616
H          H       0.09808   0.05016   0.35680   0.09455
H          H       0.36661   0.28719   0.39467   0.10313
H          H       0.34938   0.22812   0.33519   0.09793
H          H       0.38228   0.01396   0.32244   0.13134
H          H       0.51908   0.89618   0.38263   0.12218
H          H       0.47047   0.16284   0.50862   0.15003
H          H       0.52742   0.29473   0.46891   0.15723
H          H       0.32984   0.19940   0.47859   0.15002
H          H       0.11519   0.39018   0.48704   0.10746
H          H       0.39942   0.50352   0.50043   0.12417
H          H       0.37559   0.23637   0.61177   0.11714
H          H       0.09217   0.12454   0.59798   0.10411
H          H       0.75773   0.33537   0.54698   0.12720
H          H       0.94693   0.33665   0.61031   0.10974
H          H       0.72919   0.48778   0.71386   0.11343
H          H       0.54061   0.48537   0.65162   0.13192
H          H       0.25062   0.77104   0.73886   0.14338
H          H       0.06813   0.75548   0.75927   0.15611
H          H       0.23394   0.89520   0.77345   0.14244
H          H       0.29389   0.52856   0.87401   0.11955
H          H       0.19051   0.68038   0.93021   0.13958
H          H       0.13976   0.87114   0.91073   0.11416
H          H       0.15860   0.92657   0.85052   0.09315
H          H       0.90491   0.74131   0.82984   0.09001
H          H       0.88955   0.69345   0.89075   0.09829
H          H       0.88306   0.89787   0.91745   0.10608
H          H       0.90193   0.94985   0.85680   0.09464
H          H       0.63340   0.71281   0.89467   0.10295
H          H       0.65063   0.77188   0.83519   0.09800
H          H       0.61773   0.98604   0.82244   0.13145
H          H       0.48092   0.10382   0.88263   0.12218
H          H       0.52953   0.83716   0.00863   0.15002
H          H       0.47258   0.70528   0.96891   0.15723
H          H       0.67016   0.80060   0.97859   0.15018
C          C       0.74555   0.82369   0.46937   0.54992
C          C       0.83678   0.74880   0.45869  -0.06844
C          C       0.81534   0.64046   0.48578  -0.08239
C          C       0.90977   0.57747   0.47822  -0.21485
C          C       0.02737   0.62367   0.44366   0.26465
C          C       0.04759   0.72871   0.41510  -0.21914
C          C       0.95178   0.79046   0.42300  -0.06334
C          C       0.22936   0.58472   0.40443   0.23935
C          C       0.38512   0.63084   0.41593  -0.21416
C          C       0.48876   0.63083   0.38020  -0.08233
C          C       0.43658   0.58455   0.33352  -0.05411
C          C       0.28071   0.54624   0.32217  -0.07912
C          C       0.17626   0.54712   0.35730  -0.20011
C          C       0.54348   0.56513   0.29793   0.54436
C          C       0.39734   0.20529   0.23062  -0.47486
C          C       0.48151   0.26766   0.18592   0.31540
C          C       0.65562   0.39350   0.13589  -0.05145
C          C       0.53152   0.32123   0.10801  -0.11398
C          C       0.26560   0.15702   0.12680  -0.06452
C          C       0.15582   0.22213   0.13279  -0.16816
C          C       0.99047   0.13458   0.12016  -0.17520
C          C       0.88109   0.19985   0.12690  -0.06068
C          C       0.61219   0.02781   0.13987  -0.12092
C          C       0.48801   0.97050   0.10992  -0.03532
C          C       0.66747   0.11346   0.06611   0.32467
C          C       0.75279   0.19635   0.02562  -0.48485
C          C       0.25445   0.17631   0.96937   0.54966
C          C       0.16322   0.25120   0.95869  -0.06840
C          C       0.18466   0.35954   0.98578  -0.08243
C          C       0.09023   0.42253   0.97822  -0.21492
C          C       0.97264   0.37633   0.94366   0.26466
C          C       0.95242   0.27129   0.91510  -0.21913
C          C       0.04822   0.20955   0.92300  -0.06326
C          C       0.77064   0.41528   0.90443   0.23943
C          C       0.61488   0.36917   0.91593  -0.21418
C          C       0.51124   0.36917   0.88020  -0.08251
C          C       0.56343   0.41545   0.83352  -0.05408
C          C       0.71930   0.45377   0.82217  -0.07903
C          C       0.82375   0.45288   0.85730  -0.20008
C          C       0.45652   0.43487   0.79793   0.54442
C          C       0.60266   0.79471   0.73061  -0.47492
C          C       0.51850   0.73234   0.68592   0.31532
C          C       0.34438   0.60651   0.63589  -0.05161
C          C       0.46849   0.67877   0.60801  -0.11362
C          C       0.73440   0.84298   0.62680  -0.06456
C          C       0.84419   0.77787   0.63279  -0.16800
C          C       0.00953   0.86542   0.62016  -0.17520
C          C       0.11891   0.80015   0.62690  -0.06067
C          C       0.38781   0.97219   0.63987  -0.12105
C          C       0.51199   0.02950   0.60992  -0.03546
C          C       0.33254   0.88654   0.56611   0.32458
C          C       0.24722   0.80365   0.52562  -0.48479
C          C       0.07927   0.82524   0.03052   0.54960
C          C       0.91350   0.75044   0.04143  -0.06818
C          C       0.82715   0.64215   0.01436  -0.08432
C          C       0.67001   0.57864   0.02190  -0.21285
C          C       0.59815   0.62441   0.05654   0.26422
C          C       0.68243   0.72955   0.08512  -0.21779
C          C       0.83977   0.79178   0.07716  -0.06239
C          C       0.35629   0.58475   0.09551   0.24136
C          C       0.24649   0.63057   0.08355  -0.21427
C          C       0.14177   0.63047   0.11890  -0.08210
C          C       0.14681   0.58454   0.16572  -0.05241
C          C       0.26417   0.54616   0.17753  -0.08050
C          C       0.37045   0.54692   0.14273  -0.20019
C          C       0.02001   0.56572   0.20103   0.54386
C          C       0.80962   0.20751   0.26908  -0.47576
C          C       0.78685   0.26949   0.31377   0.31475
C          C       0.73798   0.39562   0.36359  -0.05006
C          C       0.78937   0.32315   0.39164  -0.11509
C          C       0.89130   0.15841   0.37307  -0.06553
C          C       0.06605   0.22304   0.36716  -0.16838
C          C       0.14356   0.13503   0.37973  -0.17352
C          C       0.31809   0.20040   0.37308  -0.06155
C          C       0.41590   0.02862   0.36022  -0.12220
C          C       0.48298   0.97135   0.39020  -0.03489
C          C       0.44589   0.11436   0.43397   0.32437
C          C       0.44302   0.19726   0.47445  -0.48381
C          C       0.92073   0.17476   0.53052   0.54977
C          C       0.08650   0.24957   0.54143  -0.06821
C          C       0.17285   0.35786   0.51436  -0.08427
C          C       0.32999   0.42136   0.52190  -0.21283
C          C       0.40185   0.37559   0.55654   0.26426
C          C       0.31758   0.27045   0.58512  -0.21791
C          C       0.16023   0.20822   0.57716  -0.06237
C          C       0.64372   0.41525   0.59551   0.24120
C          C       0.75351   0.36944   0.58355  -0.21416
C          C       0.85823   0.36953   0.61890  -0.08213
C          C       0.85319   0.41546   0.66571  -0.05241
C          C       0.73584   0.45384   0.67753  -0.08053
C          C       0.62956   0.45309   0.64273  -0.20020
C          C       0.97999   0.43428   0.70103   0.54387
C          C       0.19038   0.79249   0.76908  -0.47569
C          C       0.21316   0.73051   0.81377   0.31483
C          C       0.26203   0.60438   0.86359  -0.05018
C          C       0.21064   0.67685   0.89163  -0.11519
C          C       0.10871   0.84160   0.87307  -0.06547
C          C       0.93396   0.77696   0.86716  -0.16828
C          C       0.85644   0.86497   0.87973  -0.17355
C          C       0.68192   0.79960   0.87308  -0.06140
C          C       0.58410   0.97138   0.86022  -0.12202
C          C       0.51703   0.02865   0.89020  -0.03490
C          C       0.55411   0.88564   0.93397   0.32448
C          C       0.55698   0.80275   0.97445  -0.48414
N          N       0.62375   0.35903   0.18431  -0.37528
N          N       0.42267   0.24161   0.13999  -0.00539
N          N       0.72435   0.11879   0.11191  -0.00454
N          N       0.52393   0.02437   0.06415  -0.36116
N          N       0.37625   0.64097   0.68431  -0.37537
N          N       0.57733   0.75839   0.63999  -0.00534
N          N       0.27565   0.88121   0.61191  -0.00457
N          N       0.47607   0.97563   0.56415  -0.36080
N          N       0.73599   0.36107   0.31522  -0.37322
N          N       0.81914   0.24342   0.35978  -0.00443
N          N       0.39428   0.11957   0.38816  -0.00314
N          N       0.50064   0.02526   0.43597  -0.36160
N          N       0.26401   0.63893   0.81522  -0.37302
N          N       0.18087   0.75658   0.85978  -0.00440
N          N       0.60573   0.88043   0.88816  -0.00317
N          N       0.49937   0.97474   0.93596  -0.36189
O          O       0.64292   0.78695   0.50273  -0.57930
O          O       0.77736   0.92565   0.44541  -0.56802
O          O       0.12670   0.56489   0.44284  -0.21459
O          O       0.68796   0.61659   0.30689  -0.56049
O          O       0.48615   0.49183   0.26196  -0.56935
O          O       0.35709   0.21305   0.00274  -0.57918
O          O       0.22265   0.07435   0.94541  -0.56790
O          O       0.87330   0.43511   0.94284  -0.21466
O          O       0.31205   0.38341   0.80689  -0.56072
O          O       0.51385   0.50817   0.76196  -0.56916
O          O       0.14572   0.78802   0.99743  -0.57851
O          O       0.14871   0.92792   0.05407  -0.56722
O          O       0.44015   0.56544   0.05727  -0.21582
O          O       0.92350   0.61292   0.19069  -0.56065
O          O       0.00709   0.49697   0.23826  -0.56944
O          O       0.85429   0.21198   0.49743  -0.57855
O          O       0.85130   0.07208   0.55407  -0.56739
O          O       0.55985   0.43456   0.55726  -0.21562
O          O       0.07650   0.38708   0.69069  -0.56051
O          O       0.99291   0.50303   0.73826  -0.56964

