data_crystal

_audit_creation_method 'AiiDA-DDEC plugin'

_cell_length_a         9.79007
_cell_length_b        16.92686
_cell_length_c        21.74126

_cell_angle_alpha     89.99695
_cell_angle_beta     97.25613
_cell_angle_gamma     90.05326

_symmetry_space_group_name_Hall 'P 1'
_symmetry_space_group_name_H-M  'P 1'

loop_
_symmetry_equiv_pos_as_xyz
 'x,y,z'

loop_
_atom_site_label
_atom_site_type_symbol
_atom_site_fract_x
_atom_site_fract_y
_atom_site_fract_z
_atom_site_charge
Cu         Cu      0.30628   0.48690   0.50809   0.62654
Cu         Cu      0.96620   0.51365   0.42787   0.95640
Cu         Cu      0.69321   0.98655   0.99217   0.62667
Cu         Cu      0.03364   0.01402   0.07180   0.96349
Cu         Cu      0.69364   0.51307   0.49186   0.62574
Cu         Cu      0.03379   0.48638   0.57214   0.95590
Cu         Cu      0.30755   0.01340   0.00788   0.62446
Cu         Cu      0.96692   0.98654   0.92770   0.96090
H          H       0.09072   0.39569   0.47682   0.38688
H          H       0.43885   0.65281   0.45402   0.13847
H          H       0.03374   0.69075   0.36392   0.11520
H          H       0.36776   0.79948   0.41114   0.10147
H          H       0.20185   0.80941   0.36878   0.09574
H          H       0.27728   0.64555   0.29233   0.10519
H          H       0.37970   0.63966   0.19343   0.09033
H          H       0.51802   0.75388   0.16134   0.10198
H          H       0.44793   0.87928   0.32663   0.09089
H          H       0.56058   0.94364   0.25338   0.09910
H          H       0.68976   0.87776   0.23430   0.11732
H          H       0.75556   0.91204   0.13136   0.13961
H          H       0.32732   0.93326   0.14549   0.13674
H          H       0.39861   0.32013   0.67976   0.12562
H          H       0.34498   0.25489   0.61878   0.11657
H          H       0.21539   0.36285   0.75126   0.11295
H          H       0.04082   0.30763   0.81281   0.10568
H          H       0.98940   0.10681   0.69159   0.10841
H          H       0.16138   0.16327   0.62890   0.09869
H          H       0.80894   0.14562   0.76693   0.11604
H          H       0.86105   0.21455   0.82484   0.12254
H          H       0.90814   0.89608   0.02254   0.38779
H          H       0.56044   0.15279   0.04640   0.13932
H          H       0.96549   0.19070   0.13674   0.11496
H          H       0.63289   0.29979   0.08910   0.10185
H          H       0.79882   0.30920   0.13162   0.09423
H          H       0.72404   0.14635   0.20834   0.10508
H          H       0.62176   0.14010   0.30712   0.09109
H          H       0.48127   0.25351   0.33887   0.10171
H          H       0.54971   0.37890   0.17324   0.09107
H          H       0.43166   0.44194   0.24517   0.09895
H          H       0.30739   0.37451   0.26684   0.11634
H          H       0.24325   0.41332   0.36886   0.14059
H          H       0.67087   0.43386   0.35307   0.13662
H          H       0.60245   0.81824   0.82051   0.12610
H          H       0.65778   0.75401   0.88211   0.11770
H          H       0.78613   0.86115   0.74895   0.11268
H          H       0.96068   0.80567   0.68744   0.10595
H          H       0.01317   0.60615   0.80982   0.10790
H          H       0.84148   0.66286   0.87256   0.09982
H          H       0.19020   0.64227   0.73464   0.11641
H          H       0.14265   0.71234   0.67676   0.12418
H          H       0.90916   0.60432   0.52317   0.38695
H          H       0.56117   0.34721   0.54598   0.13864
H          H       0.96627   0.30925   0.63610   0.11503
H          H       0.63224   0.20054   0.58884   0.10150
H          H       0.79812   0.19062   0.63127   0.09552
H          H       0.72270   0.35447   0.70763   0.10501
H          H       0.62028   0.36039   0.80655   0.09024
H          H       0.48206   0.24616   0.83867   0.10241
H          H       0.55203   0.12075   0.67337   0.09044
H          H       0.43946   0.05638   0.74670   0.09832
H          H       0.31037   0.12223   0.76594   0.11758
H          H       0.24522   0.08841   0.86907   0.13992
H          H       0.67314   0.06655   0.85437   0.13623
H          H       0.60148   0.67991   0.32014   0.12524
H          H       0.65514   0.74502   0.38122   0.11661
H          H       0.78512   0.63726   0.24873   0.11321
H          H       0.95899   0.69302   0.18701   0.10542
H          H       0.00973   0.89372   0.30840   0.10818
H          H       0.83844   0.83669   0.37126   0.09924
H          H       0.18996   0.85499   0.23295   0.11645
H          H       0.13678   0.78695   0.17445   0.12256
H          H       0.09355   0.10415   0.97748   0.38749
H          H       0.43966   0.84710   0.95362   0.13901
H          H       0.03460   0.80938   0.86326   0.11535
H          H       0.36712   0.70015   0.91090   0.10198
H          H       0.20118   0.69077   0.86839   0.09438
H          H       0.27597   0.85363   0.79168   0.10520
H          H       0.37823   0.85990   0.69290   0.09087
H          H       0.51873   0.74650   0.66113   0.10151
H          H       0.45031   0.62108   0.82675   0.09112
H          H       0.56833   0.55805   0.75480   0.09907
H          H       0.69261   0.62548   0.73315   0.11611
H          H       0.75671   0.58669   0.63110   0.14037
H          H       0.32910   0.56615   0.64693   0.13669
H          H       0.39767   0.18187   0.17954   0.12599
H          H       0.34231   0.24607   0.11794   0.11768
H          H       0.21380   0.13886   0.25103   0.11248
H          H       0.03928   0.19434   0.31253   0.10629
H          H       0.98684   0.39388   0.19016   0.10785
H          H       0.15853   0.33717   0.12743   0.09970
H          H       0.80977   0.35772   0.26535   0.11649
H          H       0.85738   0.28767   0.32325   0.12444
C          C       0.32875   0.64659   0.44033   0.07679
C          C       0.12056   0.66556   0.39321   0.08785
C          C       0.29363   0.77126   0.37562  -0.10516
C          C       0.35583   0.76196   0.31617   0.06495
C          C       0.33711   0.69530   0.27853  -0.15357
C          C       0.39488   0.69183   0.22260  -0.12360
C          C       0.47258   0.75626   0.20445  -0.17316
C          C       0.49180   0.82313   0.24200   0.08231
C          C       0.43296   0.82684   0.29757  -0.25622
C          C       0.57928   0.89159   0.22546  -0.10678
C          C       0.64490   0.91982   0.11862   0.07585
C          C       0.42647   0.93395   0.12790   0.07936
C          C       0.26116   0.37180   0.60777   0.64009
C          C       0.30759   0.30033   0.64851  -0.34729
C          C       0.20190   0.26683   0.68591   0.12529
C          C       0.16583   0.30676   0.73807  -0.13050
C          C       0.06716   0.27580   0.77243  -0.16254
C          C       0.00098   0.20368   0.75626   0.13127
C          C       0.03698   0.16370   0.70415  -0.15861
C          C       0.13524   0.19503   0.66938  -0.17223
C          C       0.90054   0.16917   0.79575  -0.34419
C          C       0.95938   0.10123   0.83771   0.62372
C          C       0.67050   0.14647   0.06021   0.07728
C          C       0.87866   0.16543   0.10744   0.08698
C          C       0.70642   0.27143   0.12474  -0.10480
C          C       0.64381   0.26221   0.18411   0.06535
C          C       0.66336   0.19577   0.22196  -0.15211
C          C       0.60568   0.19211   0.27784  -0.12490
C          C       0.52680   0.25609   0.29579  -0.17336
C          C       0.50659   0.32275   0.25801   0.08497
C          C       0.56557   0.32669   0.20251  -0.25772
C          C       0.41717   0.39038   0.27432  -0.10522
C          C       0.35407   0.42101   0.38116   0.07582
C          C       0.57216   0.43474   0.37101   0.07778
C          C       0.73907   0.87161   0.89201   0.64008
C          C       0.69390   0.79933   0.85186  -0.34793
C          C       0.79993   0.76573   0.81474   0.12488
C          C       0.83587   0.80521   0.76234  -0.12894
C          C       0.93421   0.77405   0.72793  -0.16390
C          C       0.00004   0.70193   0.74429   0.13025
C          C       0.96485   0.66269   0.79689  -0.15770
C          C       0.86704   0.69423   0.83177  -0.17440
C          C       0.10062   0.66695   0.70516  -0.34567
C          C       0.04181   0.59920   0.66279   0.62163
C          C       0.67128   0.35343   0.55967   0.07677
C          C       0.87946   0.33445   0.60681   0.08783
C          C       0.70634   0.22876   0.62438  -0.10564
C          C       0.64405   0.23809   0.68381   0.06721
C          C       0.66280   0.30475   0.72143  -0.15479
C          C       0.60505   0.30823   0.77737  -0.12342
C          C       0.52743   0.24379   0.79555  -0.17246
C          C       0.50819   0.17691   0.75802   0.08222
C          C       0.56696   0.17320   0.70241  -0.25672
C          C       0.42087   0.10843   0.77465  -0.10604
C          C       0.35588   0.08036   0.88163   0.07525
C          C       0.57409   0.06587   0.87205   0.07689
C          C       0.73896   0.62815   0.39206   0.63956
C          C       0.69251   0.69966   0.35140  -0.34674
C          C       0.79803   0.73332   0.31403   0.12610
C          C       0.83417   0.69352   0.26184  -0.13077
C          C       0.93235   0.72481   0.22736  -0.16274
C          C      -0.00214   0.79715   0.24347   0.12879
C          C       0.96214   0.83685   0.29576  -0.15633
C          C       0.86438   0.80518   0.33064  -0.17389
C          C       0.09799   0.83201   0.20404  -0.34406
C          C       0.04007   0.90055   0.16242   0.62285
C          C       0.32964   0.85350   0.93978   0.07659
C          C       0.12148   0.83467   0.89251   0.08635
C          C       0.29358   0.72854   0.87528  -0.10507
C          C       0.35619   0.73777   0.81591   0.06573
C          C       0.33664   0.80421   0.77806  -0.15290
C          C       0.39431   0.80789   0.72217  -0.12450
C          C       0.47320   0.74391   0.70422  -0.17387
C          C       0.49342   0.67725   0.74199   0.08507
C          C       0.43444   0.67330   0.79749  -0.25795
C          C       0.58283   0.60962   0.72566  -0.10517
C          C       0.64587   0.57900   0.61881   0.07596
C          C       0.42781   0.56526   0.62898   0.07821
C          C       0.26135   0.12845   0.10802   0.64051
C          C       0.30622   0.20074   0.14819  -0.34839
C          C       0.20010   0.23431   0.18527   0.12493
C          C       0.16413   0.19482   0.23766  -0.12844
C          C       0.06580   0.22599   0.27207  -0.16402
C          C      -0.00000   0.29812   0.25571   0.13056
C          C       0.03518   0.33736   0.20311  -0.15755
C          C       0.13300   0.30581   0.16824  -0.17478
C          C       0.89936   0.33306   0.29483  -0.34574
C          C       0.95817   0.40078   0.33722   0.62149
N          N       0.25091   0.58741   0.45531  -0.16937
N          N       0.11968   0.59902   0.42529  -0.20849
N          N       0.24978   0.69741   0.40199   0.03290
N          N       0.58206   0.94256   0.06400  -0.20726
N          N       0.44384   0.95207   0.07008  -0.19872
N          N       0.55096   0.91384   0.15978   0.03769
N          N       0.74811   0.08714   0.04547  -0.17125
N          N       0.87933   0.09877   0.07552  -0.20945
N          N       0.74965   0.19737   0.09850   0.03188
N          N       0.41795   0.44406   0.43551  -0.20794
N          N       0.55597   0.45325   0.42889  -0.19603
N          N       0.44714   0.41452   0.33962   0.03725
N          N       0.74913   0.41260   0.54470  -0.16922
N          N       0.88035   0.40098   0.57473  -0.20867
N          N       0.75024   0.30260   0.59802   0.03289
N          N       0.41895   0.05752   0.93618  -0.20807
N          N       0.55702   0.04780   0.92990  -0.19575
N          N       0.44955   0.08617   0.84032   0.03948
N          N       0.25219   0.91294   0.95443  -0.17049
N          N       0.12096   0.90143   0.92433  -0.20915
N          N       0.25040   0.80260   0.90154   0.03216
N          N       0.58199   0.55593   0.56447  -0.20846
N          N       0.44397   0.54673   0.57110  -0.19633
N          N       0.55284   0.58550   0.66036   0.03754
O          O       0.32807   0.38448   0.56221  -0.56900
O          O       0.16277   0.41304   0.62397  -0.59100
O          O       0.06680   0.06651   0.82729  -0.58359
O          O       0.88719   0.08366   0.88196  -0.61524
O          O       0.10348   0.45225   0.48235  -0.89298
O          O       0.67046   0.88468   0.93695  -0.56803
O          O       0.83805   0.91268   0.87604  -0.59254
O          O       0.93528   0.56336   0.67309  -0.58200
O          O       0.11367   0.58319   0.61811  -0.61216
O          O       0.89664   0.95255   0.01597  -0.89320
O          O       0.67174   0.61540   0.43748  -0.56744
O          O       0.83772   0.58705   0.37600  -0.59187
O          O       0.93391   0.93654   0.17287  -0.58276
O          O       0.11257   0.91685   0.11798  -0.61458
O          O       0.89628   0.54777   0.51766  -0.89309
O          O       0.33038   0.11530   0.06322  -0.56876
O          O       0.16219   0.08742   0.12387  -0.59169
O          O       0.06482   0.43657   0.32696  -0.58246
O          O       0.88628   0.41682   0.38189  -0.61176
O          O       0.10462   0.04762   0.98383  -0.89244

