data_crystal

_audit_creation_method 'AiiDA-DDEC plugin'

_cell_length_a        11.40210
_cell_length_b        18.78391
_cell_length_c        23.92976

_cell_angle_alpha     89.95439
_cell_angle_beta     90.00867
_cell_angle_gamma     90.00361

_symmetry_space_group_name_Hall 'P 1'
_symmetry_space_group_name_H-M  'P 1'

loop_
_symmetry_equiv_pos_as_xyz
 'x,y,z'

loop_
_atom_site_label
_atom_site_type_symbol
_atom_site_fract_x
_atom_site_fract_y
_atom_site_fract_z
_atom_site_charge
Zn         Zn      0.53222   0.30157   0.51783   0.70861
Zn         Zn      0.53223   0.69867   0.48227   0.70893
Zn         Zn      0.46792   0.19880   0.01781   0.70924
Zn         Zn      0.46793   0.80147   0.98221   0.70937
Zn         Zn      0.53804   0.50144   0.49922   0.89305
Zn         Zn      0.46200   0.00126   0.00079   0.89385
H          H       0.57334   0.48032   0.64240   0.07860
H          H       0.35248   0.40191   0.68324   0.14249
H          H       0.39868   0.48820   0.70450   0.13726
H          H       0.35506   0.47428   0.63449   0.13310
H          H       0.91974   0.39310   0.74773   0.11714
H          H       0.87529   0.21173   0.85702   0.11047
H          H       0.59588   0.27692   0.74815   0.11719
H          H       0.23430   0.46675   0.77950   0.13243
H          H       0.20007   0.46566   0.85207   0.12889
H          H       0.34778   0.45126   0.82868   0.11977
H          H       0.24494   0.33568   0.85735   0.07125
H          H       0.29652   0.19797   0.84315   0.13215
H          H       0.32325   0.15453   0.77888   0.15067
H          H       0.27222   0.10429   0.83720   0.13863
H          H       0.48390   0.08173   0.82585   0.07828
H          H       0.11248   0.24663   0.44169   0.12996
H          H       0.33235   0.25251   0.44361   0.09907
H          H       0.33179   0.33328   0.60478   0.10103
H          H       0.11547   0.33976   0.60704   0.13064
H          H       0.94314   0.27528   0.61149   0.12928
H          H       0.72521   0.28189   0.60569   0.10196
H          H       0.73563   0.32549   0.43636   0.08605
H          H       0.95263   0.31963   0.43406   0.13024
H          H       0.49283   0.17460   0.59473   0.11587
H          H       0.49367   0.04149   0.59019   0.13175
H          H       0.59590   0.06067   0.41661   0.12410
H          H       0.58511   0.19219   0.42789   0.10759
H          H       0.73667   0.47148   0.58419   0.09914
H          H       0.95199   0.47084   0.58765   0.13313
H          H       0.12321   0.56479   0.57489   0.13019
H          H       0.33779   0.56376   0.57129   0.10122
H          H       0.53486   0.37418   0.73211   0.27749
H          H       0.10976   0.33697   0.75545   0.26734
H          H       0.49917   0.23613   0.80894   0.27863
H          H       0.57333   0.51972   0.35758   0.07888
H          H       0.35243   0.59809   0.31675   0.14260
H          H       0.39865   0.51179   0.29550   0.13782
H          H       0.35509   0.52571   0.36550   0.13341
H          H       0.91975   0.60691   0.25229   0.11723
H          H       0.87529   0.78825   0.14297   0.11071
H          H       0.59590   0.72310   0.25182   0.11709
H          H       0.23432   0.53323   0.22050   0.13244
H          H       0.20008   0.53439   0.14794   0.12865
H          H       0.34778   0.54878   0.17134   0.11984
H          H       0.24498   0.66437   0.14273   0.07086
H          H       0.29659   0.80203   0.15683   0.13192
H          H       0.32321   0.84541   0.22113   0.15049
H          H       0.27222   0.89568   0.16283   0.13836
H          H       0.48390   0.91826   0.17429   0.07797
H          H       0.11257   0.75335   0.55833   0.13036
H          H       0.33241   0.74748   0.55640   0.09920
H          H       0.33166   0.66672   0.39521   0.10084
H          H       0.11541   0.66024   0.39297   0.13052
H          H       0.94309   0.72472   0.38852   0.12929
H          H       0.72524   0.71813   0.39429   0.10148
H          H       0.73566   0.67453   0.56365   0.08641
H          H       0.95262   0.68041   0.56596   0.13073
H          H       0.49283   0.82543   0.40527   0.11552
H          H       0.49366   0.95852   0.40982   0.13161
H          H       0.59590   0.93933   0.58342   0.12457
H          H       0.58511   0.80783   0.57213   0.10823
H          H       0.73697   0.52864   0.41570   0.09805
H          H       0.95220   0.52907   0.41232   0.13283
H          H       0.12322   0.43512   0.42518   0.12992
H          H       0.33784   0.43636   0.42872   0.10058
H          H       0.53481   0.62585   0.26783   0.27749
H          H       0.10975   0.66304   0.24459   0.26750
H          H       0.49917   0.76388   0.19103   0.27867
H          H       0.42389   0.01910   0.14207   0.07960
H          H       0.64558   0.09717   0.18273   0.14394
H          H       0.60025   0.01049   0.20380   0.13730
H          H       0.64180   0.02533   0.13363   0.13246
H          H       0.08000   0.10817   0.24760   0.11561
H          H       0.12229   0.29126   0.35514   0.11192
H          H       0.40501   0.22272   0.24952   0.11817
H          H       0.76214   0.03278   0.27926   0.13264
H          H       0.79552   0.03368   0.35185   0.12856
H          H       0.64872   0.05010   0.32794   0.12015
H          H       0.75528   0.16495   0.35602   0.07327
H          H       0.70279   0.30248   0.34329   0.13331
H          H       0.67649   0.34603   0.27895   0.15046
H          H       0.72727   0.39613   0.33728   0.13880
H          H       0.51534   0.41858   0.32565   0.07841
H          H       0.88721   0.25548   0.94207   0.13065
H          H       0.66730   0.24855   0.94363   0.09881
H          H       0.66817   0.16647   0.10454   0.10085
H          H       0.88438   0.16023   0.10681   0.13137
H          H       0.05710   0.22499   0.11120   0.12943
H          H       0.27489   0.21804   0.10530   0.10146
H          H       0.26395   0.17470   0.93599   0.08618
H          H       0.04689   0.18111   0.93378   0.12942
H          H       0.50718   0.32526   0.09459   0.11561
H          H       0.50636   0.45837   0.09006   0.13243
H          H       0.40413   0.43949   0.91643   0.12493
H          H       0.41490   0.30804   0.92777   0.10708
H          H       0.26227   0.02886   0.08464   0.09752
H          H       0.04710   0.02895   0.08765   0.13304
H          H       0.87716   0.93486   0.07478   0.12986
H          H       0.66245   0.93629   0.07143   0.10088
H          H       0.46276   0.12659   0.23105   0.27632
H          H       0.89457   0.15618   0.25486   0.26755
H          H       0.50108   0.26450   0.30885   0.28018
H          H       0.42376   0.98123   0.85802   0.07887
H          H       0.64516   0.90281   0.81742   0.14343
H          H       0.60010   0.98950   0.79623   0.13626
H          H       0.64185   0.97477   0.86644   0.13246
H          H       0.07997   0.89182   0.75244   0.11552
H          H       0.12237   0.70876   0.64488   0.11219
H          H       0.40504   0.77731   0.75056   0.11840
H          H       0.76216   0.96720   0.72075   0.13288
H          H       0.79553   0.96639   0.64816   0.12815
H          H       0.64875   0.94992   0.67205   0.12007
H          H       0.75536   0.83511   0.64391   0.07281
H          H       0.70282   0.69753   0.65672   0.13319
H          H       0.67652   0.65399   0.72106   0.15071
H          H       0.72723   0.60387   0.66274   0.13903
H          H       0.51531   0.58146   0.67432   0.07914
H          H       0.88733   0.74449   0.05791   0.13049
H          H       0.66740   0.75140   0.05639   0.09875
H          H       0.66804   0.83350   0.89550   0.10087
H          H       0.88429   0.83974   0.89318   0.13111
H          H       0.05712   0.77504   0.88879   0.12895
H          H       0.27493   0.78204   0.89474   0.10146
H          H       0.26394   0.82526   0.06405   0.08594
H          H       0.04684   0.81888   0.06622   0.12938
H          H       0.50719   0.67491   0.90545   0.11515
H          H       0.50632   0.54179   0.90995   0.13270
H          H       0.40416   0.56063   0.08358   0.12463
H          H       0.41493   0.69211   0.07223   0.10701
H          H       0.26383   0.97188   0.91612   0.09714
H          H       0.04873   0.97085   0.91235   0.13283
H          H       0.87693   0.06476   0.92500   0.13016
H          H       0.66228   0.06417   0.92896   0.10103
H          H       0.46274   0.87336   0.76927   0.27629
H          H       0.89461   0.84385   0.74510   0.26781
H          H       0.50117   0.73557   0.69117   0.28038
C          C       0.53225   0.38140   0.60514   0.56590
C          C       0.52722   0.43185   0.65519   0.06695
C          C       0.40013   0.44981   0.67002  -0.42460
C          C       0.70370   0.38842   0.70049   0.46523
C          C       0.75238   0.34027   0.74437  -0.01929
C          C       0.86754   0.34904   0.76373  -0.12690
C          C       0.91275   0.30293   0.80453  -0.02715
C          C       0.84180   0.24781   0.82528  -0.11269
C          C       0.72737   0.23842   0.80572  -0.02430
C          C       0.68373   0.28445   0.76469  -0.12420
C          C       0.03090   0.31475   0.83091   0.46384
C          C       0.25480   0.44103   0.81961  -0.41728
C          C       0.23324   0.36010   0.81601   0.05895
C          C       0.32087   0.32650   0.77354   0.54890
C          C       0.65246   0.18040   0.82930   0.45608
C          C       0.32927   0.14848   0.82442  -0.41198
C          C       0.45594   0.13340   0.84241   0.06790
C          C       0.46336   0.12722   0.90661   0.57836
C          C       0.15863   0.26871   0.47766  -0.17229
C          C       0.28046   0.27034   0.47907   0.09117
C          C       0.28105   0.31713   0.56860   0.09659
C          C       0.15941   0.31896   0.57013  -0.17223
C          C       0.09590   0.29487   0.52374   0.09875
C          C       0.96698   0.29768   0.52304   0.09835
C          C       0.90101   0.28703   0.57175  -0.17047
C          C       0.77946   0.28989   0.56890   0.09254
C          C       0.78500   0.31463   0.47416   0.09161
C          C       0.90650   0.31190   0.47331  -0.15223
C          C       0.51499   0.14658   0.55628   0.08841
C          C       0.51671   0.07263   0.55345  -0.17362
C          C       0.54480   0.03922   0.50262   0.09880
C          C       0.57113   0.08308   0.45680  -0.16591
C          C       0.56724   0.15665   0.46289   0.09806
C          C       0.78632   0.48491   0.54687   0.09891
C          C       0.90841   0.48470   0.54864  -0.17957
C          C       0.16632   0.53540   0.54156  -0.17625
C          C       0.28836   0.53508   0.53969   0.08934
C          C       0.53229   0.61878   0.39462   0.56662
C          C       0.52724   0.56817   0.34473   0.06681
C          C       0.40010   0.55020   0.32997  -0.42499
C          C       0.70371   0.61159   0.29948   0.46451
C          C       0.75239   0.65973   0.25562  -0.01909
C          C       0.86755   0.65096   0.23628  -0.12685
C          C       0.91276   0.69707   0.19548  -0.02724
C          C       0.84181   0.75218   0.17471  -0.11270
C          C       0.72738   0.76157   0.19426  -0.02394
C          C       0.68374   0.71554   0.23528  -0.12428
C          C       0.03091   0.68525   0.16911   0.46353
C          C       0.25481   0.55900   0.18041  -0.41741
C          C       0.23326   0.63993   0.18406   0.06013
C          C       0.32088   0.67349   0.22657   0.54813
C          C       0.65247   0.81960   0.17069   0.45588
C          C       0.32929   0.85151   0.17560  -0.41154
C          C       0.45595   0.86663   0.15765   0.06820
C          C       0.46338   0.87293   0.09345   0.57821
C          C       0.15868   0.73129   0.52235  -0.17164
C          C       0.28051   0.72965   0.52094   0.09183
C          C       0.28102   0.68287   0.43141   0.09609
C          C       0.15938   0.68104   0.42988  -0.17185
C          C       0.09591   0.70512   0.47628   0.09880
C          C       0.96698   0.70232   0.47698   0.09862
C          C       0.90099   0.71297   0.42826  -0.17026
C          C       0.77944   0.71010   0.43109   0.09225
C          C       0.78500   0.68537   0.52584   0.09223
C          C       0.90650   0.68812   0.52670  -0.15164
C          C       0.51500   0.85345   0.44372   0.08779
C          C       0.51671   0.92739   0.44657  -0.17359
C          C       0.54480   0.96080   0.49740   0.09955
C          C       0.57114   0.91694   0.54322  -0.16577
C          C       0.56726   0.84337   0.53714   0.09847
C          C       0.78652   0.51523   0.45305   0.09746
C          C       0.90858   0.51527   0.45131  -0.17995
C          C       0.16634   0.46455   0.45849  -0.17698
C          C       0.28838   0.46506   0.46029   0.09124
C          C       0.46671   0.11843   0.10542   0.56747
C          C       0.47032   0.06738   0.15509   0.06521
C          C       0.59767   0.04932   0.16959  -0.42565
C          C       0.29377   0.11089   0.20124   0.46448
C          C       0.24717   0.16027   0.24481  -0.02103
C          C       0.13155   0.15230   0.26372  -0.12696
C          C       0.08577   0.19883   0.30396  -0.02875
C          C       0.15675   0.25408   0.32445  -0.11119
C          C       0.27210   0.26238   0.30565  -0.02085
C          C       0.31633   0.21567   0.26528  -0.12673
C          C       0.96672   0.18766   0.32945   0.46204
C          C       0.74216   0.05897   0.31920  -0.41711
C          C       0.76644   0.13949   0.31513   0.05768
C          C       0.67988   0.17331   0.27248   0.54813
C          C       0.34734   0.32017   0.32931   0.45519
C          C       0.67026   0.35199   0.32448  -0.41312
C          C       0.54369   0.36709   0.34245   0.06731
C          C       0.53663   0.37335   0.40663   0.57712
C          C       0.84104   0.23251   0.97773  -0.17226
C          C       0.71922   0.23047   0.97904   0.09301
C          C       0.71883   0.18286   0.06837   0.09973
C          C       0.84049   0.18121   0.06992  -0.17374
C          C       0.90389   0.20578   0.02361   0.10061
C          C       0.03285   0.20291   0.02275   0.10003
C          C       0.09903   0.21328   0.07143  -0.16911
C          C       0.22055   0.21014   0.06854   0.09137
C          C       0.21474   0.18564   0.97381   0.09183
C          C       0.09322   0.18876   0.97299  -0.15207
C          C       0.48491   0.35336   0.05616   0.08820
C          C       0.48319   0.42730   0.05334  -0.17406
C          C       0.45496   0.46084   0.00254   0.09978
C          C       0.42877   0.41707   0.95668  -0.16442
C          C       0.43266   0.34349   0.96278   0.09818
C          C       0.21317   0.01540   0.04718   0.09625
C          C       0.09109   0.01525   0.04874  -0.17917
C          C       0.83390   0.96436   0.04150  -0.17680
C          C       0.71187   0.96498   0.03980   0.09162
C          C       0.46660   0.88212   0.89508   0.56559
C          C       0.47017   0.93287   0.84513   0.06741
C          C       0.59752   0.95078   0.83053  -0.42470
C          C       0.29370   0.88920   0.79895   0.46553
C          C       0.24715   0.83976   0.75534  -0.02003
C          C       0.13157   0.84769   0.73634  -0.12738
C          C       0.08582   0.80118   0.69606  -0.02846
C          C       0.15680   0.74595   0.67558  -0.11256
C          C       0.27214   0.73768   0.69441  -0.02111
C          C       0.31634   0.78438   0.73482  -0.12703
C          C       0.96677   0.81235   0.67053   0.46196
C          C       0.74219   0.94105   0.68079  -0.41674
C          C       0.76650   0.86054   0.68481   0.05750
C          C       0.67993   0.82669   0.72742   0.54880
C          C       0.34736   0.67988   0.67072   0.45568
C          C       0.67027   0.64803   0.67553  -0.41294
C          C       0.54367   0.63298   0.65756   0.06697
C          C       0.53661   0.62682   0.59339   0.57773
C          C       0.84111   0.76747   0.02227  -0.17239
C          C       0.71930   0.76951   0.02098   0.09237
C          C       0.71878   0.81712   0.93165   0.10053
C          C       0.84044   0.81875   0.93008  -0.17434
C          C       0.90389   0.79420   0.97638   0.10068
C          C       0.03284   0.79710   0.97724   0.09947
C          C       0.09903   0.78675   0.92858  -0.16900
C          C       0.22055   0.78991   0.93149   0.09117
C          C       0.21470   0.81436   0.02622   0.09170
C          C       0.09319   0.81124   0.02702  -0.15229
C          C       0.48491   0.64680   0.94387   0.08937
C          C       0.48318   0.57286   0.94668  -0.17507
C          C       0.45497   0.53930   0.99747   0.10030
C          C       0.42879   0.58306   0.04333  -0.16509
C          C       0.43268   0.65665   0.03724   0.09872
C          C       0.21398   0.98505   0.95340   0.09832
C          C       0.09192   0.98468   0.95144  -0.17868
C          C       0.83381   0.03539   0.95840  -0.17672
C          C       0.71179   0.03524   0.96043   0.09116
C          C       0.97237   0.49998   0.50000   0.09259
C          C       0.10216   0.49997   0.50002   0.09508
C          C       0.02770  -0.00014  -0.00002   0.09367
C          C       0.89795  -0.00020  -0.00011   0.09517
N          N       0.58620   0.40051   0.70311  -0.37719
N          N       0.11349   0.34565   0.79766  -0.37495
N          N       0.53485   0.18765   0.82090  -0.37706
N          N       0.34146   0.29463   0.52351  -0.22737
N          N       0.72168   0.30359   0.52089  -0.22476
N          N       0.53945   0.18803   0.51178  -0.21493
N          N       0.58618   0.59948   0.29681  -0.37767
N          N       0.11350   0.65436   0.20239  -0.37524
N          N       0.53486   0.81235   0.17910  -0.37705
N          N       0.34149   0.70534   0.47650  -0.22800
N          N       0.72165   0.69639   0.47910  -0.22575
N          N       0.53947   0.81200   0.48823  -0.21563
N          N       0.41166   0.09884   0.20306  -0.37713
N          N       0.88708   0.15236   0.29737  -0.36856
N          N       0.46491   0.31267   0.32126  -0.37902
N          N       0.65832   0.20550   0.02332  -0.23069
N          N       0.27824   0.19634   0.02054  -0.22587
N          N       0.46035   0.31198   0.01168  -0.21582
N          N       0.41161   0.90126   0.79716  -0.37846
N          N       0.88714   0.84766   0.70259  -0.36802
N          N       0.46494   0.68739   0.67877  -0.37880
N          N       0.65835   0.79449   0.97672  -0.23073
N          N       0.27820   0.80369   0.97951  -0.22488
N          N       0.46036   0.68817   0.98835  -0.21630
N          N       0.72558   0.50018   0.49994  -0.23601
N          N       0.34961   0.50019   0.49994  -0.22682
N          N       0.27442   0.00037   0.00038  -0.23447
N          N       0.65061   0.00028   0.00021  -0.22788
O          O       0.52920   0.40747   0.55519  -0.57099
O          O       0.53580   0.31471   0.61225  -0.52492
O          O       0.76811   0.41447   0.66347  -0.51771
O          O       0.27986   0.30697   0.72713  -0.58860
O          O       0.42805   0.32523   0.78997  -0.62067
O          O       0.04763   0.29957   0.88098  -0.51853
O          O       0.47607   0.18549   0.93340  -0.54271
O          O       0.45187   0.06562   0.92737  -0.56010
O          O       0.69609   0.12878   0.85504  -0.50877
O          O       0.52920   0.59287   0.44470  -0.57093
O          O       0.53581   0.68536   0.38750  -0.52107
O          O       0.76805   0.58556   0.33653  -0.51654
O          O       0.27987   0.69300   0.27297  -0.58789
O          O       0.42801   0.67476   0.21012  -0.62069
O          O       0.04763   0.70042   0.11904  -0.51788
O          O       0.47592   0.81466   0.06665  -0.54146
O          O       0.45203   0.93459   0.07278  -0.56135
O          O       0.69610   0.87124   0.14499  -0.50864
O          O       0.47071   0.09277   0.05532  -0.57135
O          O       0.46372   0.18496   0.11282  -0.52117
O          O       0.22748   0.08408   0.16563  -0.51396
O          O       0.72070   0.18917   0.22511  -0.59098
O          O       0.57359   0.17827   0.28950  -0.61996
O          O       0.94662   0.20736   0.37840  -0.52083
O          O       0.52400   0.31496   0.43338  -0.54000
O          O       0.54808   0.43494   0.42731  -0.55983
O          O       0.30383   0.37176   0.35505  -0.51031
O          O       0.47065   0.90799   0.94502  -0.57135
O          O       0.46368   0.81547   0.88792  -0.52333
O          O       0.22747   0.91610   0.83454  -0.51461
O          O       0.72078   0.81087   0.77480  -0.59093
O          O       0.57371   0.82165   0.71028  -0.62065
O          O       0.94665   0.79262   0.62159  -0.52183
O          O       0.52396   0.68522   0.56664  -0.54209
O          O       0.54809   0.56528   0.57264  -0.55846
O          O       0.30385   0.62831   0.64496  -0.51073

