data_crystal

_audit_creation_method 'AiiDA-DDEC plugin'

_cell_length_a        20.59548
_cell_length_b        20.59480
_cell_length_c        20.59494

_cell_angle_alpha     109.53439
_cell_angle_beta     109.54342
_cell_angle_gamma     109.54356

_symmetry_space_group_name_Hall 'P 1'
_symmetry_space_group_name_H-M  'P 1'

loop_
_symmetry_equiv_pos_as_xyz
 'x,y,z'

loop_
_atom_site_label
_atom_site_type_symbol
_atom_site_fract_x
_atom_site_fract_y
_atom_site_fract_z
_atom_site_charge
Cu         Cu      0.24987   0.74965   0.49977   0.31849
Cu         Cu      0.74963   0.24985   0.49977   0.31840
Cu         Cu      0.74963   0.49978   0.24985   0.31835
Cu         Cu      0.24987   0.49978   0.74964   0.31853
Cu         Cu      0.49977   0.74964   0.24986   0.31854
Cu         Cu      0.49978   0.24986   0.74964   0.31851
H          H       0.38303   0.75115   0.51236   0.10855
H          H       0.43599   0.84141   0.51675   0.11140
H          H       0.08693   0.70440   0.21644   0.11277
H          H       0.08519   0.61475   0.16806   0.10451
H          H       0.61725   0.12933   0.36834   0.10841
H          H       0.56460   0.08062   0.40571   0.11115
H          H       0.91361   0.13026   0.61800   0.11244
H          H       0.91464   0.08336   0.52963   0.10448
H          H       0.76109   0.24887   0.63174   0.10861
H          H       0.67476   0.15863   0.59401   0.11176
H          H       0.51218   0.29547   0.38263   0.11178
H          H       0.55396   0.38513   0.47106   0.10432
H          H       0.23845   0.87001   0.48716   0.10863
H          H       0.32468   0.91895   0.48338   0.11102
H          H       0.48770   0.87053   0.78320   0.11165
H          H       0.44635   0.91731   0.83129   0.10447
H          H       0.86999   0.48717   0.23847   0.10856
H          H       0.91892   0.48338   0.32469   0.11114
H          H       0.87053   0.78317   0.48769   0.11183
H          H       0.91731   0.83128   0.44635   0.10440
H          H       0.24887   0.63172   0.76108   0.10863
H          H       0.15862   0.59397   0.67475   0.11207
H          H       0.29545   0.38263   0.51220   0.11182
H          H       0.38512   0.47108   0.55398   0.10418
H          H       0.12933   0.36835   0.61726   0.10809
H          H       0.08065   0.40574   0.56463   0.11123
H          H       0.13027   0.61799   0.91358   0.11236
H          H       0.08336   0.52963   0.91463   0.10418
H          H       0.75114   0.51235   0.38302   0.10856
H          H       0.84141   0.51675   0.43596   0.11127
H          H       0.70442   0.21648   0.08696   0.11263
H          H       0.61475   0.16808   0.08520   0.10452
H          H       0.63174   0.76110   0.24887   0.10874
H          H       0.59399   0.67477   0.15863   0.11181
H          H       0.38263   0.51218   0.29546   0.11187
H          H       0.47107   0.55394   0.38512   0.10418
H          H       0.48715   0.23845   0.87000   0.10862
H          H       0.48337   0.32468   0.91892   0.11135
H          H       0.78319   0.48771   0.87053   0.11189
H          H       0.83130   0.44638   0.91734   0.10415
H          H       0.51236   0.38305   0.75115   0.10842
H          H       0.51676   0.43597   0.84141   0.11122
H          H       0.21645   0.08694   0.70441   0.11254
H          H       0.16805   0.08520   0.61475   0.10466
H          H       0.36833   0.61724   0.12933   0.10831
H          H       0.40572   0.56462   0.08066   0.11110
H          H       0.61800   0.91360   0.13026   0.11241
H          H       0.52963   0.91463   0.08333   0.10441
H          H       0.38303   0.51236   0.75115   0.10869
H          H       0.43599   0.51675   0.84141   0.11127
H          H       0.08693   0.21644   0.70440   0.11271
H          H       0.08519   0.16806   0.61474   0.10463
H          H       0.61724   0.36834   0.12933   0.10830
H          H       0.56460   0.40571   0.08062   0.11120
H          H       0.91361   0.61800   0.13026   0.11252
H          H       0.91464   0.52963   0.08336   0.10440
H          H       0.76109   0.63174   0.24887   0.10862
H          H       0.67476   0.59401   0.15863   0.11178
H          H       0.51218   0.38263   0.29547   0.11174
H          H       0.55396   0.47106   0.38513   0.10426
H          H       0.23845   0.48716   0.87000   0.10873
H          H       0.32468   0.48338   0.91895   0.11099
H          H       0.48771   0.78320   0.87053   0.11173
H          H       0.44636   0.83129   0.91731   0.10455
H          H       0.86999   0.23847   0.48717   0.10855
H          H       0.91892   0.32469   0.48338   0.11124
H          H       0.87053   0.48769   0.78317   0.11184
H          H       0.91731   0.44635   0.83128   0.10417
H          H       0.24887   0.76109   0.63172   0.10883
H          H       0.15862   0.67475   0.59397   0.11207
H          H       0.29545   0.51220   0.38263   0.11187
H          H       0.38512   0.55398   0.47108   0.10417
H          H       0.12933   0.61726   0.36835   0.10809
H          H       0.08065   0.56463   0.40574   0.11104
H          H       0.13027   0.91359   0.61799   0.11232
H          H       0.08336   0.91464   0.52962   0.10434
H          H       0.75114   0.38302   0.51234   0.10836
H          H       0.84141   0.43596   0.51674   0.11127
H          H       0.70442   0.08696   0.21647   0.11259
H          H       0.61475   0.08520   0.16807   0.10451
H          H       0.63174   0.24887   0.76109   0.10861
H          H       0.59399   0.15863   0.67477   0.11181
H          H       0.38263   0.29546   0.51218   0.11185
H          H       0.47107   0.38512   0.55394   0.10433
H          H       0.48715   0.87000   0.23845   0.10857
H          H       0.48337   0.91892   0.32468   0.11126
H          H       0.78319   0.87053   0.48771   0.11167
H          H       0.83130   0.91734   0.44638   0.10418
H          H       0.51236   0.75116   0.38305   0.10832
H          H       0.51676   0.84141   0.43597   0.11132
H          H       0.21645   0.70442   0.08694   0.11266
H          H       0.16805   0.61475   0.08520   0.10459
H          H       0.36833   0.12933   0.61724   0.10838
H          H       0.40572   0.08066   0.56462   0.11117
H          H       0.61800   0.13026   0.91359   0.11238
H          H       0.52963   0.08333   0.91463   0.10427
H          H       0.42435   0.68185   0.42437   0.08930
H          H       0.51029   0.76798   0.51029   0.09293
H          H       0.16661   0.76918   0.16659   0.09035
H          H       0.08460   0.67726   0.08461   0.08271
H          H       0.57532  -0.00041   0.25741   0.08876
H          H       0.48968  -0.00040   0.25751   0.09359
H          H       0.83369   0.00043   0.60267   0.08979
H          H       0.91538   0.00047   0.59281   0.08199
H          H       0.74264   0.31823   0.74263   0.08883
H          H       0.74216   0.23218   0.74216   0.09324
H          H       0.39728   0.23067   0.39729   0.09040
H          H       0.40759   0.32256   0.40758   0.08143
H          H       0.25739  -0.00044   0.57530   0.08871
H          H       0.25751  -0.00039   0.48969   0.09369
H          H       0.60268   0.00045   0.83370   0.08997
H          H       0.59281   0.00046   0.91538   0.08187
H          H      -0.00043   0.57533   0.25740   0.08881
H          H      -0.00040   0.48972   0.25753   0.09345
H          H       0.00044   0.83368   0.60267   0.08988
H          H       0.00047   0.91535   0.59279   0.08222
H          H       0.31822   0.74263   0.74262   0.08867
H          H       0.23219   0.74214   0.74214   0.09336
H          H       0.23067   0.39731   0.39731   0.09029
H          H       0.32254   0.40760   0.40760   0.08132
H          H      -0.00043   0.25740   0.57533   0.08869
H          H      -0.00040   0.25754   0.48972   0.09354
H          H       0.00044   0.60267   0.83367   0.09019
H          H       0.00047   0.59279   0.91534   0.08213
H          H       0.68185   0.42435   0.42435   0.08931
H          H       0.76797   0.51026   0.51026   0.09321
H          H       0.76918   0.16662   0.16662   0.09026
H          H       0.67727   0.08464   0.08464   0.08249
H          H       0.74264   0.74264   0.31823   0.08878
H          H       0.74216   0.74217   0.23218   0.09333
H          H       0.39728   0.39729   0.23067   0.09043
H          H       0.40758   0.40758   0.32256   0.08136
H          H       0.57532   0.25741  -0.00041   0.08875
H          H       0.48968   0.25751  -0.00040   0.09359
H          H       0.83369   0.60267   0.00043   0.08983
H          H       0.91538   0.59281   0.00047   0.08199
H          H       0.42435   0.42437   0.68185   0.08930
H          H       0.51029   0.51030   0.76798   0.09297
H          H       0.16661   0.16659   0.76917   0.09017
H          H       0.08460   0.08461   0.67726   0.08270
H          H       0.25739   0.57530  -0.00044   0.08884
H          H       0.25751   0.48969  -0.00039   0.09364
H          H       0.60268   0.83371   0.00045   0.08985
H          H       0.59281   0.91538   0.00046   0.08209
C          C       0.19693   0.70736   0.27134   0.20206
C          C       0.33061   0.75258   0.40475   0.20537
C          C       0.40263   0.77600   0.47839  -0.24350
C          C       0.12184   0.68014   0.19802  -0.22723
C          C       0.80329   0.07492   0.51076   0.20144
C          C       0.66960   0.07418   0.42212   0.20551
C          C       0.59763   0.07566   0.37350  -0.24368
C          C       0.87835   0.07678   0.55858  -0.22739
C          C       0.56400   0.29245   0.48958   0.20171
C          C       0.65204   0.24742   0.57792   0.20615
C          C       0.70216   0.22404   0.62641  -0.24451
C          C       0.51812   0.31973   0.44191  -0.22547
C          C       0.43597   0.92566   0.72844   0.20417
C          C       0.34774   0.92557   0.59504   0.20507
C          C       0.29745   0.92379   0.52140  -0.24245
C          C       0.48196   0.92397   0.80168  -0.22654
C          C       0.92565   0.72843   0.43597   0.20424
C          C       0.92556   0.59504   0.34774   0.20508
C          C       0.92378   0.52141   0.29746  -0.24229
C          C       0.92396   0.80166   0.48195  -0.22623
C          C       0.29244   0.48959   0.56401   0.20156
C          C       0.24742   0.57791   0.65205   0.20640
C          C       0.22404   0.62639   0.70216  -0.24481
C          C       0.31972   0.44193   0.51814  -0.22575
C          C       0.07492   0.51076   0.80328   0.20157
C          C       0.07418   0.42213   0.66961   0.20533
C          C       0.07567   0.37352   0.59765  -0.24351
C          C       0.07678   0.55857   0.87834  -0.22735
C          C       0.70737   0.27136   0.19694   0.20170
C          C       0.75257   0.40475   0.33060   0.20528
C          C       0.77600   0.47839   0.40262  -0.24347
C          C       0.68014   0.19805   0.12186  -0.22704
C          C       0.48959   0.56400   0.29245   0.20155
C          C       0.57792   0.65206   0.24742   0.20609
C          C       0.62640   0.70217   0.22404  -0.24449
C          C       0.44192   0.51811   0.31972  -0.22527
C          C       0.72843   0.43597   0.92565   0.20411
C          C       0.59503   0.34774   0.92556   0.20491
C          C       0.52139   0.29745   0.92378  -0.24255
C          C       0.80168   0.48197   0.92397  -0.22641
C          C       0.27134   0.19693   0.70736   0.20192
C          C       0.40474   0.33061   0.75257   0.20535
C          C       0.47839   0.40264   0.77599  -0.24348
C          C       0.19802   0.12185   0.68014  -0.22729
C          C       0.51075   0.80329   0.07492   0.20155
C          C       0.42212   0.66961   0.07418   0.20560
C          C       0.37350   0.59763   0.07567  -0.24351
C          C       0.55858   0.87835   0.07677  -0.22719
C          C       0.19693   0.27134   0.70736   0.20193
C          C       0.33061   0.40475   0.75258   0.20527
C          C       0.40263   0.47839   0.77600  -0.24338
C          C       0.12184   0.19802   0.68014  -0.22719
C          C       0.80329   0.51076   0.07492   0.20151
C          C       0.66960   0.42212   0.07418   0.20556
C          C       0.59763   0.37350   0.07566  -0.24357
C          C       0.87835   0.55858   0.07678  -0.22748
C          C       0.56400   0.48959   0.29245   0.20158
C          C       0.65204   0.57792   0.24742   0.20608
C          C       0.70217   0.62641   0.22404  -0.24446
C          C       0.51812   0.44192   0.31973  -0.22543
C          C       0.43597   0.72844   0.92565   0.20398
C          C       0.34774   0.59504   0.92556   0.20503
C          C       0.29745   0.52140   0.92379  -0.24264
C          C       0.48196   0.80168   0.92396  -0.22638
C          C       0.92565   0.43597   0.72842   0.20431
C          C       0.92556   0.34774   0.59504   0.20508
C          C       0.92378   0.29746   0.52140  -0.24223
C          C       0.92396   0.48195   0.80166  -0.22609
C          C       0.29244   0.56401   0.48959   0.20134
C          C       0.24742   0.65205   0.57791   0.20639
C          C       0.22404   0.70216   0.62639  -0.24475
C          C       0.31972   0.51814   0.44193  -0.22563
C          C       0.07492   0.80328   0.51075   0.20142
C          C       0.07418   0.66962   0.42212   0.20525
C          C       0.07567   0.59765   0.37352  -0.24343
C          C       0.07678   0.87834   0.55857  -0.22727
C          C       0.70737   0.19694   0.27136   0.20170
C          C       0.75257   0.33060   0.40474   0.20529
C          C       0.77600   0.40262   0.47838  -0.24340
C          C       0.68014   0.12186   0.19805  -0.22698
C          C       0.48959   0.29245   0.56400   0.20162
C          C       0.57792   0.24742   0.65205   0.20614
C          C       0.62640   0.22404   0.70217  -0.24467
C          C       0.44192   0.31973   0.51811  -0.22545
C          C       0.72843   0.92566   0.43597   0.20430
C          C       0.59503   0.92556   0.34774   0.20505
C          C       0.52139   0.92378   0.29745  -0.24247
C          C       0.80168   0.92397   0.48197  -0.22621
C          C       0.27134   0.70736   0.19693   0.20205
C          C       0.40475   0.75257   0.33061   0.20526
C          C       0.47839   0.77600   0.40263  -0.24320
C          C       0.19802   0.68014   0.12185  -0.22742
C          C       0.51075   0.07492   0.80329   0.20159
C          C       0.42212   0.07418   0.66960   0.20552
C          C       0.37350   0.07567   0.59763  -0.24352
C          C       0.55858   0.07677   0.87835  -0.22713
C          C       0.26619   0.71832   0.26619  -0.10329
C          C       0.33561   0.74266   0.33561  -0.08701
C          C       0.45609   0.74737   0.45609  -0.12330
C          C       0.14035   0.70429   0.14035  -0.13884
C          C       0.73388   0.00021   0.45217  -0.10460
C          C       0.66443  -0.00005   0.40702  -0.08695
C          C       0.54379  -0.00037   0.29120  -0.12334
C          C       0.85974   0.00043   0.56401  -0.13756
C          C       0.54797   0.28170   0.54796  -0.10450
C          C       0.59300   0.25750   0.59301  -0.08695
C          C       0.70861   0.25270   0.70862  -0.12287
C          C       0.43619   0.29558   0.43618  -0.13744
C          C       0.45217   0.00021   0.73388  -0.10463
C          C       0.40702  -0.00005   0.66443  -0.08681
C          C       0.29120  -0.00037   0.54378  -0.12327
C          C       0.56401   0.00043   0.85974  -0.13779
C          C       0.00021   0.73388   0.45217  -0.10456
C          C      -0.00006   0.66444   0.40701  -0.08665
C          C      -0.00037   0.54381   0.29122  -0.12334
C          C       0.00043   0.85971   0.56399  -0.13771
C          C       0.28169   0.54797   0.54797  -0.10407
C          C       0.25750   0.59301   0.59301  -0.08745
C          C       0.25270   0.70859   0.70859  -0.12271
C          C       0.29557   0.43621   0.43621  -0.13718
C          C       0.00021   0.45217   0.73387  -0.10470
C          C      -0.00006   0.40701   0.66443  -0.08666
C          C      -0.00037   0.29122   0.54381  -0.12341
C          C       0.00043   0.56400   0.85971  -0.13786
C          C       0.71832   0.26620   0.26619  -0.10282
C          C       0.74266   0.33561   0.33561  -0.08724
C          C       0.74737   0.45607   0.45606  -0.12310
C          C       0.70429   0.14038   0.14038  -0.13873
C          C       0.54797   0.54797   0.28170  -0.10439
C          C       0.59300   0.59301   0.25750  -0.08696
C          C       0.70861   0.70862   0.25270  -0.12294
C          C       0.43619   0.43618   0.29558  -0.13752
C          C       0.73388   0.45217   0.00021  -0.10471
C          C       0.66443   0.40702  -0.00005  -0.08704
C          C       0.54378   0.29120  -0.00037  -0.12357
C          C       0.85974   0.56402   0.00043  -0.13737
C          C       0.26619   0.26619   0.71831  -0.10306
C          C       0.33561   0.33561   0.74266  -0.08732
C          C       0.45609   0.45609   0.74737  -0.12292
C          C       0.14035   0.14035   0.70429  -0.13887
C          C       0.45217   0.73388   0.00021  -0.10470
C          C       0.40702   0.66443  -0.00005  -0.08698
C          C       0.29120   0.54378  -0.00037  -0.12349
C          C       0.56402   0.85974   0.00043  -0.13792
N          N       0.26277   0.74054   0.40507  -0.16614
N          N       0.19486   0.71934   0.33784  -0.23901
N          N       0.73748   0.14263   0.47828  -0.16645
N          N       0.80546   0.14360   0.52513  -0.23792
N          N       0.66415   0.25898   0.52185  -0.16649
N          N       0.61821   0.28014   0.47524  -0.23856
N          N       0.33552   0.85733   0.59445  -0.16497
N          N       0.38152   0.85683   0.66171  -0.23980
N          N       0.85732   0.59445   0.33550  -0.16510
N          N       0.85682   0.66170   0.38150  -0.23947
N          N       0.25899   0.52185   0.66418  -0.16661
N          N       0.28014   0.47524   0.61823  -0.23855
N          N       0.14263   0.47826   0.73749  -0.16663
N          N       0.14361   0.52512   0.80547  -0.23805
N          N       0.74052   0.40508   0.26276  -0.16540
N          N       0.71933   0.33785   0.19485  -0.23965
N          N       0.52186   0.66418   0.25900  -0.16653
N          N       0.47526   0.61823   0.28016  -0.23831
N          N       0.59445   0.33551   0.85732  -0.16487
N          N       0.66170   0.38151   0.85683  -0.23951
N          N       0.40507   0.26277   0.74051  -0.16591
N          N       0.33783   0.19485   0.71932  -0.23960
N          N       0.47825   0.73749   0.14263  -0.16650
N          N       0.52511   0.80547   0.14361  -0.23791
N          N       0.26277   0.40508   0.74054  -0.16592
N          N       0.19486   0.33784   0.71934  -0.23905
N          N       0.73748   0.47828   0.14263  -0.16654
N          N       0.80546   0.52513   0.14360  -0.23785
N          N       0.66415   0.52185   0.25898  -0.16647
N          N       0.61821   0.47524   0.28014  -0.23867
N          N       0.33552   0.59445   0.85733  -0.16495
N          N       0.38152   0.66171   0.85683  -0.23950
N          N       0.85732   0.33550   0.59445  -0.16504
N          N       0.85682   0.38151   0.66170  -0.23955
N          N       0.25899   0.66418   0.52185  -0.16647
N          N       0.28014   0.61824   0.47524  -0.23825
N          N       0.14263   0.73749   0.47826  -0.16663
N          N       0.14361   0.80547   0.52512  -0.23799
N          N       0.74052   0.26276   0.40508  -0.16545
N          N       0.71933   0.19485   0.33785  -0.23978
N          N       0.52186   0.25900   0.66418  -0.16659
N          N       0.47526   0.28016   0.61823  -0.23836
N          N       0.59445   0.85732   0.33551  -0.16499
N          N       0.66170   0.85683   0.38151  -0.23985
N          N       0.40507   0.74052   0.26277  -0.16591
N          N       0.33783   0.71932   0.19485  -0.23953
N          N       0.47826   0.14263   0.73748  -0.16638
N          N       0.52511   0.14361   0.80547  -0.23806

