data_crystal

_audit_creation_method 'AiiDA-DDEC plugin'

_cell_length_a        17.04207
_cell_length_b        20.15004
_cell_length_c        25.04250

_cell_angle_alpha     88.22862
_cell_angle_beta     70.13727
_cell_angle_gamma     64.99923

_symmetry_space_group_name_Hall 'P 1'
_symmetry_space_group_name_H-M  'P 1'

loop_
_symmetry_equiv_pos_as_xyz
 'x,y,z'

loop_
_atom_site_label
_atom_site_type_symbol
_atom_site_fract_x
_atom_site_fract_y
_atom_site_fract_z
_atom_site_charge
Cd         Cd      0.01475   0.82314   0.55360   1.06458
Cd         Cd      0.03228   0.64906   0.61568   1.01634
Cd         Cd      0.89220   0.67650   0.94635   1.06348
Cd         Cd      0.79841   0.85037   0.88397   1.01743
Cd         Cd      0.98525   0.17686   0.44640   1.06463
Cd         Cd      0.96772   0.35095   0.38432   1.01633
Cd         Cd      0.10780   0.32350   0.05365   1.06360
Cd         Cd      0.20159   0.14963   0.11603   1.01747
Cd         Cd     -0.00000   0.00000   0.50000   1.14781
Cd         Cd     -0.00000   0.50000   0.00000   1.14876
H          H       0.56772   0.88289   0.47366   0.11713
H          H       0.57142   0.86579   0.30230   0.10913
H          H       0.82185   0.74372   0.33723   0.10710
H          H       0.63553   0.78727   0.52040   0.11153
H          H       0.72183   0.75025   0.58777   0.12572
H          H       0.95996   0.75749   0.45930   0.12224
H          H       0.87412   0.79463   0.39181   0.09815
H          H       0.47286   0.00449   0.34778   0.11470
H          H       0.30152   0.08231   0.37661   0.12439
H          H       0.25063   0.94200   0.50273   0.12470
H          H       0.42214   0.86462   0.47541   0.11202
H          H       0.68050   0.86540   0.21814   0.11399
H          H       0.75627   0.80456   0.11694   0.12225
H          H       0.90594   0.60016   0.17080   0.11131
H          H       0.83247   0.65971   0.27165   0.10961
H          H       0.98302   0.32227   0.85168   0.11440
H          H       0.95131   0.24368   0.70559   0.10664
H          H       0.01538   0.10035   0.83042   0.11632
H          H       0.12030   0.08517   0.87054   0.11276
H          H       0.16069   0.06582   0.95844   0.12582
H          H       0.96390   0.28941   0.03130   0.11821
H          H       0.92273   0.30951   0.94440   0.10777
H          H       0.92215   0.42673   0.83024   0.10904
H          H       0.94506   0.53120   0.78460   0.13528
H          H       0.02693   0.41683   0.61847   0.13159
H          H       0.00660   0.31115   0.66313   0.09991
H          H       0.92052   0.06184   0.80024   0.11702
H          H       0.93453   0.95886   0.73895   0.12705
H          H       0.07944   0.02866   0.58866   0.12308
H          H       0.06556   0.13089   0.64897   0.10353
H          H       0.42460   0.61703   0.02615   0.11705
H          H       0.23943   0.63469   0.19748   0.10835
H          H       0.40362   0.75618   0.16257   0.10715
H          H       0.44325   0.71233   0.97927   0.11162
H          H       0.56034   0.74831   0.91145   0.12515
H          H       0.67761   0.74196   0.03970   0.12237
H          H       0.56099   0.70587   0.10767   0.09819
H          H       0.32551   0.49562   0.15221   0.11549
H          H       0.25943   0.41818   0.12433   0.12815
H          H       0.19404   0.55768   0.99788   0.12375
H          H       0.26195   0.63493   0.02435   0.11227
H          H       0.26393   0.63502   0.28181   0.11461
H          H       0.17720   0.69614   0.38283   0.12151
H          H       0.17715   0.90032   0.32879   0.11208
H          H       0.26455   0.84053   0.22817   0.11021
H          H       0.65707   0.17701   0.64813   0.11369
H          H       0.40116   0.25562   0.79430   0.10721
H          H       0.44668   0.39899   0.66959   0.11650
H          H       0.57705   0.41400   0.62896   0.11305
H          H       0.68597   0.43303   0.54104   0.12557
H          H       0.78464   0.20918   0.46854   0.11857
H          H       0.67653   0.18985   0.55552   0.10669
H          H       0.67926   0.07239   0.66960   0.10967
H          H       0.76137   0.96825   0.71528   0.13402
H          H       0.56299   0.08276   0.88138   0.13198
H          H       0.48157   0.18820   0.83674   0.10071
H          H       0.28310   0.43761   0.70014   0.11598
H          H       0.13355   0.54048   0.76129   0.12804
H          H       0.19852   0.46985   0.91161   0.12357
H          H       0.34668   0.36804   0.85105   0.10276
H          H       0.43227   0.11711   0.52634   0.11707
H          H       0.42858   0.13421   0.69770   0.10906
H          H       0.17814   0.25628   0.66277   0.10713
H          H       0.36447   0.21273   0.47960   0.11156
H          H       0.27817   0.24975   0.41223   0.12570
H          H       0.04004   0.24252   0.54070   0.12231
H          H       0.12587   0.20538   0.60819   0.09810
H          H       0.52714   0.99551   0.65222   0.11474
H          H       0.69847   0.91770   0.62339   0.12424
H          H       0.74937   0.05801   0.49727   0.12476
H          H       0.57786   0.13539   0.52459   0.11222
H          H       0.31950   0.13460   0.78186   0.11370
H          H       0.24373   0.19544   0.88306   0.12214
H          H       0.09406   0.39984   0.82920   0.11143
H          H       0.16753   0.34029   0.72835   0.10968
H          H       0.01698   0.67773   0.14832   0.11421
H          H       0.04868   0.75633   0.29441   0.10655
H          H       0.98462   0.89965   0.16958   0.11651
H          H       0.87970   0.91483   0.12946   0.11296
H          H       0.83931   0.93418   0.04156   0.12602
H          H       0.03610   0.71059   0.96870   0.12114
H          H       0.07726   0.69050   0.05560   0.10758
H          H       0.07784   0.57327   0.16976   0.10904
H          H       0.05494   0.46881   0.21540   0.13512
H          H       0.97306   0.58318   0.38153   0.13160
H          H       0.99339   0.68886   0.33687   0.10009
H          H       0.07947   0.93817   0.19976   0.11701
H          H       0.06546   0.04115   0.26105   0.12714
H          H       0.92056   0.97134   0.41134   0.12303
H          H       0.93444   0.86912   0.35103   0.10341
H          H       0.57540   0.38298   0.97385   0.11708
H          H       0.76057   0.36531   0.80252   0.10832
H          H       0.59637   0.24382   0.83743   0.10701
H          H       0.55675   0.28767   0.02073   0.11165
H          H       0.43965   0.25169   0.08855   0.12512
H          H       0.32239   0.25805   0.96030   0.12236
H          H       0.43900   0.29413   0.89233   0.09821
H          H       0.67449   0.50439   0.84779   0.11557
H          H       0.74056   0.58182   0.87567   0.12839
H          H       0.80596   0.44233   0.00212   0.12364
H          H       0.73805   0.36507   0.97566   0.11213
H          H       0.73607   0.36498   0.71819   0.11480
H          H       0.82280   0.30387   0.61717   0.12160
H          H       0.82284   0.09969   0.67121   0.11190
H          H       0.73544   0.15947   0.77183   0.11005
H          H       0.34293   0.82300   0.35187   0.11388
H          H       0.59884   0.74438   0.20570   0.10724
H          H       0.55332   0.60101   0.33041   0.11622
H          H       0.42294   0.58600   0.37104   0.11292
H          H       0.31403   0.56698   0.45896   0.12543
H          H       0.21536   0.79082   0.53146   0.11876
H          H       0.32346   0.81015   0.44448   0.10683
H          H       0.32074   0.92761   0.33040   0.10970
H          H       0.23863   0.03175   0.28472   0.13408
H          H       0.43701   0.91724   0.11862   0.13191
H          H       0.51842   0.81180   0.16326   0.10063
H          H       0.71690   0.56239   0.29986   0.11596
H          H       0.86644   0.45952   0.23871   0.12793
H          H       0.80148   0.53015   0.08839   0.12359
H          H       0.65332   0.63196   0.14895   0.10286
C          C       0.70090   0.81145   0.41006   0.07826
C          C       0.60540   0.85935   0.42881  -0.16661
C          C       0.55897   0.88013   0.38999   0.07538
C          C       0.60845   0.85182   0.33192  -0.17183
C          C       0.70306   0.80140   0.31240   0.08088
C          C       0.74861   0.78236   0.35188  -0.17574
C          C       0.74967   0.79238   0.45098   0.07653
C          C       0.70607   0.78156   0.50715  -0.13302
C          C       0.75373   0.76072   0.54481  -0.08656
C          C       0.84571   0.75113   0.52753  -0.01468
C          C       0.88922   0.76356   0.47210  -0.08345
C          C       0.84143   0.78387   0.43450  -0.13646
C          C       0.45850   0.92927   0.40948   0.06910
C          C       0.42416   0.99104   0.38184  -0.14044
C          C       0.32898   0.03455   0.39781  -0.08816
C          C       0.26656   0.01601   0.44094  -0.03520
C          C       0.30041   0.95549   0.46960  -0.09312
C          C       0.39565   0.91286   0.45438  -0.14508
C          C       0.75076   0.76691   0.25223   0.07812
C          C       0.72945   0.80718   0.20790  -0.13702
C          C       0.77152   0.77366   0.15142  -0.09088
C          C       0.83534   0.69857   0.13783  -0.02726
C          C       0.85744   0.65837   0.18158  -0.09102
C          C       0.81617   0.69203   0.23800  -0.12545
C          C       0.89747   0.72494   0.56731   0.56321
C          C       0.16425   0.05789   0.45429   0.57791
C          C       0.87879   0.66152   0.07715   0.58314
C          C       0.99716   0.21130   0.84849   0.07585
C          C       0.97983   0.27978   0.82803  -0.16224
C          C       0.96703   0.29191   0.77535   0.07607
C          C       0.96672   0.23455   0.74467  -0.16882
C          C       0.98438   0.16535   0.76392   0.07803
C          C      -0.00022   0.15433   0.81585  -0.15513
C          C       0.01797   0.19854   0.90141   0.07815
C          C       0.08431   0.12931   0.90628  -0.13464
C          C       0.10760   0.11825   0.95495  -0.08417
C          C       0.06474   0.17607   0.00017  -0.02748
C          C       0.99719   0.24470   0.99620  -0.08674
C          C       0.97448   0.25590   0.94730  -0.12743
C          C       0.96516   0.35953   0.75028   0.06921
C          C       0.94625   0.42343   0.78382  -0.12394
C          C       0.95835   0.48263   0.75848  -0.08803
C          C       0.98915   0.47952   0.69856  -0.00736
C          C       0.00416   0.41782   0.66477  -0.09117
C          C       0.99190   0.35910   0.69030  -0.13974
C          C       0.99129   0.10418   0.72888   0.07127
C          C       0.95601   0.05423   0.75406  -0.13497
C          C       0.96328   0.99692   0.72019  -0.08302
C          C       0.00707   0.98798   0.66037  -0.02545
C          C       0.04438   0.03630   0.63492  -0.08675
C          C       0.03570   0.09407   0.66895  -0.12834
C          C       0.09735   0.16547   0.04930   0.56325
C          C       0.00651   0.53997   0.66907   0.53783
C          C       0.01208   0.92760   0.62467   0.55801
C          C       0.42265   0.68860   0.08972   0.07851
C          C       0.39367   0.64069   0.07100  -0.16672
C          C       0.32918   0.61995   0.10983   0.07343
C          C       0.29238   0.64843   0.16789  -0.16967
C          C       0.31727   0.69878   0.18741   0.07985
C          C       0.38337   0.71770   0.14791  -0.17547
C          C       0.49328   0.70752   0.04864   0.07715
C          C       0.49507   0.71787   0.99239  -0.13570
C          C       0.55981   0.73818   0.95446  -0.08237
C          C       0.62515   0.74781   0.97152  -0.01734
C          C       0.62566   0.73583   0.02700  -0.08496
C          C       0.56025   0.71608   0.06490  -0.13608
C          C       0.29705   0.57077   0.09053   0.07023
C          C       0.29680   0.50914   0.11841  -0.14261
C          C       0.26048   0.46577   0.10291  -0.09083
C          C       0.22232   0.48415   0.05989  -0.03614
C          C       0.22441   0.54444   0.03093  -0.09054
C          C       0.26231   0.58699   0.04574  -0.14567
C          C       0.27035   0.73336   0.24758   0.07979
C          C       0.24461   0.69325   0.29195  -0.13884
C          C       0.19627   0.72696   0.34838  -0.09007
C          C       0.17129   0.80210   0.36194  -0.02715
C          C       0.19749   0.84209   0.31817  -0.09022
C          C       0.24673   0.80825   0.26180  -0.12722
C          C       0.68989   0.77429   0.93150   0.56326
C          C       0.17524   0.44209   0.04678   0.57645
C          C       0.11633   0.83937   0.42257   0.58231
C          C       0.55730   0.28803   0.65134   0.07620
C          C       0.58789   0.21954   0.67181  -0.16050
C          C       0.53469   0.20737   0.72452   0.07566
C          C       0.44652   0.26472   0.75525  -0.17101
C          C       0.41435   0.33396   0.73607   0.07814
C          C       0.47047   0.34499   0.68409  -0.15438
C          C       0.61832   0.30072   0.59834   0.07556
C          C       0.62075   0.36977   0.59330  -0.13458
C          C       0.68189   0.38055   0.54459  -0.08471
C          C       0.74202   0.32260   0.49943  -0.02499
C          C       0.73857   0.25415   0.50354  -0.08817
C          C       0.67789   0.24333   0.55250  -0.12707
C          C       0.57534   0.13971   0.74957   0.06841
C          C       0.65379   0.07579   0.71604  -0.12469
C          C       0.69992   0.01673   0.74142  -0.08573
C          C       0.66782   0.01986   0.80134  -0.00706
C          C       0.58747   0.08158   0.83509  -0.09157
C          C       0.54191   0.14022   0.80955  -0.13955
C          C       0.32525   0.39504   0.77129   0.07020
C          C       0.26502   0.44511   0.74630  -0.13106
C          C       0.18127   0.50241   0.78025  -0.08622
C          C       0.15643   0.51125   0.84008  -0.02631
C          C       0.21676   0.46263   0.86538  -0.08731
C          C       0.29981   0.40497   0.83121  -0.12689
C          C       0.81343   0.33303   0.45033   0.56155
C          C       0.71601   0.95941   0.83085   0.53854
C          C       0.06582   0.57204   0.87586   0.56131
C          C       0.29909   0.18855   0.58994   0.07810
C          C       0.39459   0.14066   0.57119  -0.16672
C          C       0.44102   0.11987   0.61001   0.07540
C          C       0.39154   0.14818   0.66808  -0.17192
C          C       0.29694   0.19860   0.68760   0.08074
C          C       0.25139   0.21765   0.64812  -0.17529
C          C       0.25033   0.20763   0.54902   0.07651
C          C       0.29392   0.21844   0.49285  -0.13325
C          C       0.24627   0.23928   0.45519  -0.08640
C          C       0.15429   0.24887   0.47247  -0.01451
C          C       0.11077   0.23645   0.52790  -0.08359
C          C       0.15857   0.21614   0.56550  -0.13634
C          C       0.54150   0.07073   0.59052   0.06921
C          C       0.57583   0.00897   0.61816  -0.14065
C          C       0.67102   0.96545   0.60219  -0.08808
C          C       0.73344   0.98400   0.55906  -0.03538
C          C       0.69959   0.04452   0.53040  -0.09316
C          C       0.60435   0.08715   0.54562  -0.14504
C          C       0.24923   0.23310   0.74777   0.07813
C          C       0.27055   0.19282   0.79210  -0.13694
C          C       0.22848   0.22634   0.84858  -0.09108
C          C       0.16466   0.30144   0.86217  -0.02721
C          C       0.14256   0.34163   0.81842  -0.09077
C          C       0.18383   0.30797   0.76200  -0.12543
C          C       0.10253   0.27506   0.43269   0.56304
C          C       0.83574   0.94211   0.54571   0.57806
C          C       0.12121   0.33848   0.92285   0.58301
C          C       0.00284   0.78870   0.15151   0.07574
C          C       0.02017   0.72023   0.17197  -0.16218
C          C       0.03296   0.70810   0.22465   0.07603
C          C       0.03328   0.76545   0.25533  -0.16880
C          C       0.01562   0.83466   0.23608   0.07810
C          C       0.00022   0.84568   0.18415  -0.15511
C          C       0.98202   0.80147   0.09859   0.07844
C          C       0.91569   0.87069   0.09372  -0.13483
C          C       0.89240   0.88175   0.04505  -0.08402
C          C       0.93526   0.82393  -0.00017  -0.02743
C          C       0.00281   0.75531   0.00380  -0.08953
C          C       0.02552   0.74411   0.05270  -0.12764
C          C       0.03483   0.64047   0.24972   0.06918
C          C       0.05375   0.57657   0.21618  -0.12411
C          C       0.04165   0.51738   0.24152  -0.08791
C          C       0.01085   0.52049   0.30144  -0.00737
C          C       0.99583   0.58218   0.33523  -0.09129
C          C       0.00809   0.64090   0.30970  -0.13960
C          C       0.00871   0.89582   0.27112   0.07120
C          C       0.04399   0.94578   0.24594  -0.13504
C          C       0.03672   0.00309   0.27981  -0.08294
C          C       0.99293   0.01203   0.33963  -0.02529
C          C       0.95562   0.96371   0.36508  -0.08676
C          C       0.96429   0.90594   0.33105  -0.12829
C          C       0.90265   0.83454   0.95070   0.56315
C          C       0.99349   0.46003   0.33093   0.53797
C          C       0.98792   0.07240   0.37534   0.55774
C          C       0.57734   0.31140   0.91028   0.07834
C          C       0.60633   0.35931   0.92900  -0.16652
C          C       0.67082   0.38005   0.89017   0.07334
C          C       0.70762   0.35158   0.83211  -0.16946
C          C       0.68273   0.30123   0.81259   0.07977
C          C       0.61663   0.28231   0.85209  -0.17539
C          C       0.50672   0.29249   0.95136   0.07727
C          C       0.50493   0.28213   0.00761  -0.13590
C          C       0.44019   0.26183   0.04554  -0.08235
C          C       0.37485   0.25220   0.02848  -0.01734
C          C       0.37433   0.26418   0.97300  -0.08491
C          C       0.43975   0.28393   0.93510  -0.13606
C          C       0.70294   0.42924   0.90947   0.07024
C          C       0.70320   0.49087   0.88159  -0.14251
C          C       0.73951   0.53424   0.89709  -0.09094
C          C       0.77767   0.51585   0.94012  -0.03620
C          C       0.77558   0.45556   0.96907  -0.09045
C          C       0.73768   0.41301   0.95426  -0.14576
C          C       0.72965   0.26664   0.75242   0.07986
C          C       0.75539   0.30676   0.70805  -0.13885
C          C       0.80373   0.27304   0.65162  -0.08991
C          C       0.82870   0.19790   0.63806  -0.02708
C          C       0.80251   0.15791   0.68183  -0.09042
C          C       0.75327   0.19176   0.73820  -0.12714
C          C       0.31010   0.22572   0.06850   0.56326
C          C       0.82476   0.55792   0.95322   0.57650
C          C       0.88367   0.16064   0.57743   0.58228
C          C       0.44270   0.71197   0.34866   0.07621
C          C       0.41211   0.78046   0.32819  -0.16058
C          C       0.46531   0.79264   0.27548   0.07575
C          C       0.55348   0.73528   0.24475  -0.17096
C          C       0.58565   0.66605   0.26393   0.07808
C          C       0.52953   0.65501   0.31591  -0.15433
C          C       0.38168   0.69928   0.40166   0.07544
C          C       0.37925   0.63024   0.40670  -0.13461
C          C       0.31811   0.61946   0.45541  -0.08479
C          C       0.25798   0.67741   0.50057  -0.02508
C          C       0.26142   0.74586   0.49646  -0.08826
C          C       0.32211   0.75668   0.44750  -0.12680
C          C       0.42465   0.86029   0.25043   0.06846
C          C       0.34621   0.92422   0.28396  -0.12479
C          C       0.30007   0.98327   0.25858  -0.08546
C          C       0.33218   0.98014   0.19866  -0.00712
C          C       0.41253   0.91843   0.16491  -0.09139
C          C       0.45809   0.85979   0.19045  -0.13978
C          C       0.67474   0.60496   0.22871   0.07016
C          C       0.73497   0.55490   0.25370  -0.13092
C          C       0.81873   0.49759   0.21975  -0.08642
C          C       0.84357   0.48875   0.15992  -0.02647
C          C       0.78323   0.53738   0.13462  -0.08717
C          C       0.70018   0.59504   0.16879  -0.12686
C          C       0.18657   0.66697   0.54967   0.56147
C          C       0.28399   0.04059   0.16915   0.53847
C          C       0.93418   0.42797   0.12414   0.56151
O          O       0.98146   0.72056   0.54997  -0.59760
O          O       0.86457   0.70423   0.61379  -0.50365
O          O       0.13891   0.10812   0.42320  -0.54641
O          O       0.11040   0.04023   0.49489  -0.59553
O          O       0.84198   0.69753   0.04230  -0.56929
O          O       0.94817   0.59838   0.06618  -0.56728
O          O       0.15126   0.10152   0.05517  -0.52142
O          O       0.07298   0.22311   0.08392  -0.58338
O          O       0.00806   0.59151   0.69710  -0.52318
O          O       0.02003   0.53843   0.61576  -0.50834
O          O       0.98358   0.88182   0.64825  -0.48488
O          O       0.04711   0.92276   0.56896  -0.62026
O          O       0.75351   0.77791   0.94794  -0.59817
O          O       0.68078   0.79599   0.88570  -0.49995
O          O       0.16674   0.39345   0.07912  -0.54598
O          O       0.14646   0.45788   0.00514  -0.59618
O          O       0.08004   0.80374   0.45738  -0.56901
O          O       0.11160   0.90255   0.43354  -0.56593
O          O       0.80976   0.39693   0.44489  -0.52052
O          O       0.88090   0.27558   0.41542  -0.58403
O          O       0.79773   0.90873   0.80305  -0.52201
O          O       0.67413   0.96011   0.88392  -0.50830
O          O       0.01621   0.61928   0.85242  -0.48557
O          O       0.03965   0.57577   0.93150  -0.62163
O          O       0.01854   0.27945   0.45003  -0.59749
O          O       0.13543   0.29578   0.38621  -0.50356
O          O       0.86109   0.89189   0.57680  -0.54656
O          O       0.88959   0.95978   0.50511  -0.59552
O          O       0.15802   0.30248   0.95770  -0.56948
O          O       0.05183   0.40162   0.93382  -0.56693
O          O       0.84873   0.89848   0.94483  -0.52103
O          O       0.92702   0.77690   0.91608  -0.58382
O          O       0.99194   0.40850   0.30290  -0.52349
O          O       0.97997   0.46158   0.38424  -0.50833
O          O       0.01641   0.11818   0.35175  -0.48453
O          O       0.95288   0.07724   0.43104  -0.62026
O          O       0.24648   0.22210   0.05206  -0.59810
O          O       0.31921   0.20402   0.11430  -0.50009
O          O       0.83326   0.60655   0.92088  -0.54590
O          O       0.85354   0.54213   0.99486  -0.59626
O          O       0.91996   0.19626   0.54262  -0.56888
O          O       0.88840   0.09746   0.56646  -0.56616
O          O       0.19024   0.60308   0.55511  -0.52086
O          O       0.11910   0.72443   0.58458  -0.58369
O          O       0.20227   0.09128   0.19695  -0.52180
O          O       0.32586   0.03990   0.11608  -0.50836
O          O       0.98379   0.38072   0.14758  -0.48587
O          O       0.96035   0.42423   0.06850  -0.62154

