data_crystal

_audit_creation_method 'AiiDA-DDEC plugin'

_cell_length_a        15.54049
_cell_length_b        16.46208
_cell_length_c        16.51090

_cell_angle_alpha     113.46121
_cell_angle_beta     90.42296
_cell_angle_gamma     90.18751

_symmetry_space_group_name_Hall 'P 1'
_symmetry_space_group_name_H-M  'P 1'

loop_
_symmetry_equiv_pos_as_xyz
 'x,y,z'

loop_
_atom_site_label
_atom_site_type_symbol
_atom_site_fract_x
_atom_site_fract_y
_atom_site_fract_z
_atom_site_charge
Cu         Cu      0.05662   0.20228   0.71488   0.93440
Cu         Cu      0.42871   0.81656   0.33087   1.00956
Cu         Cu      0.44481   0.28554   0.79829   0.92763
Cu         Cu      0.07226   0.66200   0.19538   1.00015
Cu         Cu      0.93786   0.78924   0.28711   0.93194
Cu         Cu      0.57550   0.19179   0.66680   1.00386
Cu         Cu      0.56112   0.72187   0.20024   0.92861
Cu         Cu      0.92526   0.33347   0.80638   1.00170
Cu         Cu      0.25048   0.77028   0.23042   0.99494
Cu         Cu      0.75103   0.22746   0.77050   0.99318
H          H       0.16548   0.15176   0.08445   0.09549
H          H       0.11219   0.15095   0.93904   0.14990
H          H       0.04938   0.42733   0.07850   0.15038
H          H       0.11431   0.41965   0.21439   0.09508
H          H       0.76074   0.89439   0.70606   0.10378
H          H       0.84941   0.02332   0.70939   0.14407
H          H       0.07218   0.89328   0.75736   0.11886
H          H       0.97611   0.76878   0.75093   0.09201
H          H       0.77771   0.41369   0.45639   0.09704
H          H       0.84900   0.41586   0.59345   0.13040
H          H       0.88165   0.13333   0.45937   0.13326
H          H       0.80701   0.14133   0.32879   0.10584
H          H       0.33732   0.53142   0.71342   0.10159
H          H       0.26474   0.40319   0.73185   0.13712
H          H       0.02163   0.52872   0.72939   0.12727
H          H       0.10381   0.65061   0.70915   0.08883
H          H       0.02735   0.08302   0.53189   0.09754
H          H       0.10147   0.95370   0.41480   0.13721
H          H       0.33276   0.03224   0.57289   0.12951
H          H       0.24811   0.15371   0.68714   0.10710
H          H       0.33083   0.91841   0.85002   0.09748
H          H       0.38557   0.06374   0.85010   0.15129
H          H       0.45396   0.92096   0.57668   0.15185
H          H       0.38935   0.78441   0.58555   0.09436
H          H       0.74024   0.28906   0.10622   0.10485
H          H       0.65209   0.28798   0.97779   0.14580
H          H       0.42790   0.24474   0.10752   0.12040
H          H       0.52316   0.25359   0.23396   0.09418
H          H       0.72143   0.54453   0.58909   0.09468
H          H       0.65068   0.40663   0.58598   0.13179
H          H       0.62047   0.53918   0.86819   0.13038
H          H       0.69734   0.66910   0.86171   0.10702
H          H       0.16288   0.28442   0.46924   0.09873
H          H       0.23667   0.26504   0.59592   0.13636
H          H       0.47880   0.27105   0.47123   0.12938
H          H       0.39550   0.29432   0.35204   0.08715
H          H       0.47190   0.46940   0.91439   0.09830
H          H       0.39864   0.58806   0.04289   0.13709
H          H       0.16843   0.42808   0.97046   0.12819
H          H       0.25173   0.31309   0.84850   0.10734
H          H       0.83263   0.84969   0.92353   0.09570
H          H       0.88307   0.84583   0.06811   0.14909
H          H       0.95382   0.57277   0.92155   0.15040
H          H       0.89152   0.58483   0.78645   0.09245
H          H       0.23254   0.09543   0.29024   0.09660
H          H       0.14474   0.96539   0.28695   0.14066
H          H       0.92107   0.09296   0.23700   0.11946
H          H       0.01636   0.21913   0.24497   0.08234
H          H       0.22735   0.58715   0.54420   0.09589
H          H       0.15434   0.58282   0.40678   0.13225
H          H       0.11635   0.86466   0.53975   0.13295
H          H       0.19473   0.85957   0.66983   0.10703
H          H       0.65911   0.45479   0.28209   0.10901
H          H       0.73107   0.58415   0.26619   0.14130
H          H       0.97457   0.45899   0.26694   0.12805
H          H       0.89366   0.33588   0.28475   0.09703
H          H       0.96777   0.90786   0.46820   0.09843
H          H       0.89711   0.04022   0.58522   0.13568
H          H       0.66469   0.96869   0.42845   0.13062
H          H       0.74612   0.84415   0.31407   0.10696
H          H       0.67578   0.09170   0.14880   0.10544
H          H       0.61866   0.94771   0.14757   0.15287
H          H       0.55438   0.08881   0.42241   0.15347
H          H       0.62043   0.22406   0.41479   0.10275
H          H       0.26180   0.71006   0.89464   0.10501
H          H       0.35199   0.71425   0.02321   0.14605
H          H       0.57362   0.75671   0.88961   0.11916
H          H       0.47645   0.74778   0.76477   0.09206
H          H       0.29358   0.46215   0.41290   0.08610
H          H       0.36063   0.60178   0.41539   0.12898
H          H       0.38408   0.47148   0.13218   0.12768
H          H       0.30978   0.33986   0.13978   0.09901
H          H       0.83569   0.70842   0.52889   0.09795
H          H       0.76665   0.73070   0.40139   0.13586
H          H       0.52140   0.73825   0.52539   0.12670
H          H       0.59974   0.71002   0.64480   0.08713
H          H       0.53065   0.53804   0.08515   0.09750
H          H       0.60244   0.41532   0.95875   0.13612
H          H       0.83625   0.56939   0.02993   0.12820
H          H       0.75486   0.68835   0.14968   0.10759
Rh         Rh      0.20877   0.28395   0.27853   0.87675
Rh         Rh      0.28996   0.72347   0.71764   0.70400
Rh         Rh      0.78912   0.71808   0.72405   0.69816
Rh         Rh      0.71122   0.27706   0.28245   0.55337
C          C       0.13964   0.21090   0.07940   0.08227
C          C       0.10953   0.21046  -0.00017  -0.12071
C          C       0.07613   0.28889  -0.00116   0.03494
C          C       0.07494   0.36529   0.07698  -0.13004
C          C       0.10992   0.36113   0.15288   0.07943
C          C       0.04387   0.29047   0.91363   0.57754
C          C       0.83006   0.89618   0.71567   0.06743
C          C       0.87979   0.96749   0.71763  -0.12640
C          C       0.96891   0.96653   0.73044   0.03489
C          C       0.00374   0.89481   0.74409  -0.14070
C          C       0.95083   0.82580   0.74147   0.06559
C          C       0.02930   0.03890   0.72931   0.54993
C          C       0.80130   0.35333   0.46030   0.06015
C          C       0.84082   0.35375   0.53617  -0.12955
C          C       0.86850   0.27378   0.53843   0.05066
C          C       0.85888   0.19663   0.46172  -0.12909
C          C       0.81746   0.20055   0.38847   0.06833
C          C       0.90666   0.27155   0.62191   0.57842
C          C       0.26763   0.52778   0.71752   0.08173
C          C       0.22701   0.45712   0.72791  -0.14019
C          C       0.13729   0.45801   0.73416   0.03310
C          C       0.09141   0.52747   0.72624  -0.13054
C          C       0.13652   0.59473   0.71466   0.07584
C          C       0.08786   0.38689   0.74909   0.58020
C          C       0.09445   0.06806   0.53839   0.08662
C          C       0.13582   0.99759   0.47385  -0.15499
C          C       0.22282   0.98368   0.48637   0.01957
C          C       0.26487   0.04122   0.56295  -0.14219
C          C       0.21823   0.10901   0.62560   0.10000
C          C       0.27000   0.90815   0.41721   0.57607
C          C       0.35861   0.92271   0.79156   0.07842
C          C       0.38920   0.00206   0.79160  -0.12214
C          C       0.42458   0.00169   0.71380   0.03320
C          C       0.42721   0.92287   0.63819  -0.13109
C          C       0.39222   0.84714   0.64280   0.07172
C          C       0.45767   0.08650   0.71204   0.57825
C          C       0.67069   0.28171   0.10474   0.06083
C          C       0.62131   0.28040   0.03351  -0.12750
C          C       0.53204   0.26885   0.03422   0.03427
C          C       0.49657   0.25697   0.10637  -0.14329
C          C       0.54901   0.26023   0.17597   0.05997
C          C       0.47224   0.26946   0.96111   0.54969
C          C       0.69890   0.53980   0.64915   0.06731
C          C       0.65921   0.46373   0.64812  -0.12549
C          C       0.63157   0.46115   0.72757   0.04805
C          C       0.64276   0.53714   0.80514  -0.12331
C          C       0.68523   0.61029   0.80199   0.07276
C          C       0.59227   0.37757   0.72863   0.58213
C          C       0.23267   0.28091   0.47256   0.08727
C          C       0.27399   0.26972   0.54241  -0.14005
C          C       0.36379   0.26395   0.54151   0.03681
C          C       0.40897   0.27347   0.47280  -0.13029
C          C       0.36314   0.28642   0.40663   0.08245
C          C       0.41365   0.24905   0.61254   0.57947
C          C       0.40515   0.46296   0.93016   0.08291
C          C       0.36429   0.52833   0.00029  -0.15545
C          C       0.27812   0.51537   0.01643   0.01821
C          C       0.23584   0.43829   0.96007  -0.14078
C          C       0.28182   0.37509   0.89206   0.10028
C          C       0.23305   0.58358   0.09449   0.57787
C          C       0.85966   0.79012   0.92666   0.07966
C          C       0.88809   0.78816   0.00588  -0.12236
C          C       0.92303   0.70945   0.00465   0.03145
C          C       0.92737   0.63515   0.92485  -0.13182
C          C       0.89393   0.64172   0.84943   0.07639
C          C       0.95386   0.70553   0.08923   0.57840
C          C       0.16309   0.09288   0.28056   0.07838
C          C       0.11426   0.02104   0.27852  -0.12912
C          C       0.02517   0.02166   0.26536   0.03328
C          C       0.98948   0.09267   0.25101  -0.14519
C          C       0.04221   0.16216   0.25443   0.07666
C          C       0.96546   0.94957   0.26749   0.54840
C          C       0.20217   0.64672   0.53985   0.06608
C          C       0.16136   0.64497   0.46420  -0.12708
C          C       0.13077   0.72402   0.46216   0.04904
C          C       0.14046   0.80201   0.53792  -0.12643
C          C       0.18392   0.79968   0.61084   0.07191
C          C       0.09001   0.72377   0.37900   0.58117
C          C       0.72867   0.45856   0.27800   0.06721
C          C       0.76931   0.53003   0.26915  -0.13487
C          C       0.85910   0.53029   0.26304   0.03557
C          C       0.90477   0.46020   0.26984  -0.12904
C          C       0.86048   0.39179   0.28016   0.06528
C          C       0.90846   0.60336   0.25063   0.58143
C          C       0.90132   0.92505   0.46196   0.08357
C          C       0.86196   0.99719   0.52634  -0.15447
C          C       0.77569   0.01404   0.51418   0.01787
C          C       0.73223   0.95770   0.43798  -0.14101
C          C       0.77699   0.88808   0.37532   0.10199
C          C       0.73120   0.09175   0.58333   0.57631
C          C       0.64819   0.08755   0.20726   0.06632
C          C       0.61614   0.00861   0.20699  -0.12073
C          C       0.58128   0.00765   0.28449   0.03783
C          C       0.58054   0.08634   0.36045  -0.13018
C          C       0.61677   0.16212   0.35693   0.05838
C          C       0.54711   0.92219   0.28501   0.57866
C          C       0.33123   0.71835   0.89557   0.06417
C          C       0.38167   0.72101   0.96661  -0.12449
C          C       0.47076   0.73293   0.96449   0.03492
C          C       0.50514   0.74435   0.89180  -0.14131
C          C       0.45170   0.74062   0.82288   0.06540
C          C       0.53171   0.73322   0.03680   0.55003
C          C       0.31330   0.46784   0.35225   0.07797
C          C       0.35096   0.54485   0.35331  -0.12992
C          C       0.37559   0.54782   0.27313   0.04811
C          C       0.36358   0.47231   0.19531  -0.12851
C          C       0.32281   0.39877   0.19938   0.08569
C          C       0.41325   0.63126   0.27112   0.58050
C          C       0.76629   0.71542   0.52512   0.08151
C          C       0.72762   0.72845   0.45493  -0.14107
C          C       0.63832   0.73914   0.45562   0.03083
C          C       0.59097   0.73199   0.52425  -0.13187
C          C       0.63419   0.71663   0.59060   0.07735
C          C       0.59130   0.75705   0.38467   0.58131
C          C       0.59782   0.54234   0.06943   0.08241
C          C       0.63779   0.47476   0.00044  -0.15617
C          C       0.72458   0.48498   0.98447   0.01944
C          C       0.76831   0.56146   0.04005  -0.14284
C          C       0.72327   0.62690   0.10698   0.10037
C          C       0.76916   0.41502   0.90742   0.57512
N          N       0.14084   0.28522   0.15448  -0.26604
N          N       0.86503   0.82571   0.72646  -0.17481
N          N       0.78730   0.27757   0.38803  -0.15470
N          N       0.22319   0.59554   0.71171  -0.23290
N          N       0.13442   0.12224   0.61336  -0.25213
N          N       0.35947   0.84690   0.71815  -0.23486
N          N       0.63520   0.27297   0.17577  -0.15340
N          N       0.71394   0.61137   0.72515  -0.17584
N          N       0.27638   0.28847   0.40554  -0.26229
N          N       0.36530   0.38706   0.87764  -0.25137
N          N       0.86159   0.71786   0.84989  -0.24763
N          N       0.12769   0.16301   0.27009  -0.26400
N          N       0.21515   0.72319   0.61151  -0.17450
N          N       0.77342   0.38977   0.28241  -0.15095
N          N       0.86007   0.87182   0.38738  -0.25478
N          N       0.64983   0.16322   0.28154  -0.15507
N          N       0.36581   0.72707   0.82423  -0.17176
N          N       0.29734   0.39672   0.27656  -0.26517
N          N       0.72062   0.71028   0.59212  -0.24411
N          N       0.63908   0.61773   0.12104  -0.24967
Cl         Cl      0.31493   0.18066   0.19059  -0.36074
Cl         Cl      0.10502   0.38879   0.37050  -0.39442
Cl         Cl      0.18423   0.81056   0.81851  -0.38608
Cl         Cl      0.39476   0.63078   0.61403  -0.43132
Cl         Cl      0.68558   0.81857   0.80918  -0.35736
Cl         Cl      0.89223   0.61539   0.63355  -0.40415
Cl         Cl      0.81493   0.18803   0.18163  -0.40991
Cl         Cl      0.60847   0.36881   0.38466  -0.44165
O          O       0.98327   0.34407   0.91978  -0.51472
O          O       0.08190   0.23824   0.84492  -0.56776
O          O       0.99079   0.09887   0.70974  -0.54344
O          O       0.10726   0.03458   0.74472  -0.52664
O          O       0.87427   0.32824   0.69290  -0.56187
O          O       0.96539   0.21665   0.61475  -0.57447
O          O       0.12061   0.30966   0.71819  -0.55920
O          O       0.01765   0.41206   0.78999  -0.54297
O          O       0.34563   0.89301   0.43547  -0.52888
O          O       0.22525   0.86833   0.34675  -0.54677
O          O       0.36326   0.81197   0.23379  -0.59160
O          O       0.51835   0.07937   0.65868  -0.51393
O          O       0.42015   0.15588   0.76386  -0.56683
O          O       0.51070   0.29075   0.90242  -0.54319
O          O       0.39470   0.25203   0.96399  -0.52540
O          O       0.62391   0.30629   0.67160  -0.56218
O          O       0.53336   0.38511   0.78314  -0.57362
O          O       0.38136   0.28107   0.68967  -0.55913
O          O       0.48353   0.20721   0.58748  -0.53863
O          O       0.16064   0.56316   0.11491  -0.53487
O          O       0.27691   0.65537   0.13141  -0.54740
O          O       0.13422   0.76125   0.19809  -0.58033
O          O       0.01663   0.65435   0.08310  -0.51638
O          O       0.91308   0.75358   0.15782  -0.56939
O          O       0.00414   0.89188   0.29056  -0.54501
O          O       0.88781   0.95212   0.25002  -0.52482
O          O       0.12168   0.66622   0.30825  -0.55877
O          O       0.03020   0.77757   0.38603  -0.57392
O          O       0.87502   0.68025   0.28345  -0.55858
O          O       0.97904   0.58020   0.21001  -0.54512
O          O       0.65869   0.11336   0.56368  -0.53240
O          O       0.77477   0.12693   0.65534  -0.54538
O          O       0.63612   0.19396   0.76563  -0.59198
O          O       0.48534   0.92893   0.33712  -0.51752
O          O       0.58466   0.85274   0.23342  -0.56755
O          O       0.49366   0.71449   0.09724  -0.54623
O          O       0.60942   0.74882   0.03191  -0.52560
O          O       0.38110   0.70236   0.32815  -0.56643
O          O       0.47133   0.62370   0.21581  -0.57105
O          O       0.62383   0.72453   0.30771  -0.56134
O          O       0.52308   0.80190   0.40919  -0.54482
O          O       0.84026   0.43600   0.88459  -0.53307
O          O       0.72715   0.34180   0.87354  -0.54147
O          O       0.86603   0.23420   0.80512  -0.59105

