data_crystal

_audit_creation_method 'AiiDA-DDEC plugin'

_cell_length_a        13.14554
_cell_length_b        14.18650
_cell_length_c        18.65440

_cell_angle_alpha     90.00045
_cell_angle_beta     90.00045
_cell_angle_gamma     90.00090

_symmetry_space_group_name_Hall 'P 1'
_symmetry_space_group_name_H-M  'P 1'

loop_
_symmetry_equiv_pos_as_xyz
 'x,y,z'

loop_
_atom_site_label
_atom_site_type_symbol
_atom_site_fract_x
_atom_site_fract_y
_atom_site_fract_z
_atom_site_charge
Mn         Mn      0.24321   0.48919   0.42935   1.18442
Mn         Mn      0.28825   0.51396   0.59476   1.08069
Mn         Mn      0.25681   0.51074   0.93107   1.18678
Mn         Mn      0.21122   0.48595   0.09582   1.07433
Mn         Mn      0.75735   0.98883   0.07271   1.16833
Mn         Mn      0.71253   0.01297   0.91033   1.07204
Mn         Mn      0.73893   0.01392   0.58285   1.10143
Mn         Mn      0.78142   0.98920   0.42118   1.14927
H          H       0.72518   0.27295   0.34192   0.13875
H          H       0.82329   0.30645   0.40113   0.13315
H          H       0.72614   0.38791   0.38043   0.12919
H          H       0.70515   0.29995   0.57143   0.10840
H          H       0.78856   0.36551   0.51639   0.08759
H          H       0.67385   0.49159   0.51257   0.08319
H          H       0.59823   0.43033   0.57552   0.10800
H          H       0.57797   0.44288   0.41385   0.09502
H          H       0.53356   0.19772   0.36386   0.13286
H          H       0.56488   0.31175   0.33129   0.12614
H          H       0.44462   0.29280   0.37056   0.13917
H          H       0.51252   0.16794   0.49550   0.12564
H          H       0.42655   0.26458   0.50239   0.12391
H          H       0.53394   0.25823   0.55957   0.14737
H          H       0.92513   0.45423   0.57480   0.12481
H          H       0.84038   0.54638   0.59954   0.13600
H          H       0.96063   0.53675   0.64235   0.13326
H          H       0.94810   0.59689   0.41633   0.10917
H          H       0.86941   0.51366   0.45814   0.09640
H          H       0.74260   0.62918   0.47780   0.08161
H          H       0.81283   0.70170   0.41968   0.11032
H          H       0.79751   0.70404   0.58063   0.09476
H          H       0.96830   0.79614   0.64236   0.12915
H          H       0.05376   0.69838   0.64706   0.13759
H          H       0.92365   0.68371   0.66832   0.12192
H          H       0.02101   0.83163   0.52043   0.13017
H          H       0.00907   0.74925   0.44934   0.14613
H          H       0.10562   0.73361   0.51521   0.12795
H          H       0.35935   0.53138   0.19026   0.15665
H          H       0.39481   0.47438   0.27274   0.17201
H          H       0.34391   0.59007   0.27495   0.17161
H          H       0.77686   0.72991   0.84542   0.13594
H          H       0.67623   0.69523   0.90283   0.13303
H          H       0.77486   0.61367   0.88268   0.13013
H          H       0.79425   0.69601   0.07440   0.10963
H          H       0.71252   0.63277   0.01769   0.08646
H          H       0.82697   0.50685   0.01288   0.08214
H          H       0.90317   0.56715   0.07529   0.10849
H          H       0.92167   0.55774   0.91385   0.09335
H          H       0.96535   0.80224   0.86453   0.13137
H          H       0.93407   0.68816   0.83199   0.12516
H          H       0.05435   0.70740   0.87120   0.13814
H          H       0.98792   0.83136   0.99527   0.12532
H          H       0.07460   0.73557   0.00273   0.12536
H          H       0.96731   0.74224   0.06010   0.14873
H          H       0.57472   0.54582   0.07447   0.12494
H          H       0.65959   0.45410   0.09945   0.13601
H          H       0.53906   0.46334   0.14206   0.13354
H          H       0.55363   0.40077   0.91642   0.10927
H          H       0.63250   0.48432   0.95839   0.09654
H          H       0.75936   0.36965   0.97829   0.08294
H          H       0.68704   0.29423   0.92325   0.10783
H          H       0.70203   0.29948   0.08383   0.09543
H          H       0.53074   0.20404   0.14304   0.13009
H          H       0.44537   0.30180   0.14776   0.13910
H          H       0.57538   0.31610   0.16926   0.12205
H          H       0.47930   0.16786   0.02024   0.13064
H          H       0.49252   0.25128   0.94981   0.14446
H          H       0.39628   0.26684   0.01558   0.12686
H          H       0.13990   0.46844   0.69066   0.15298
H          H       0.10448   0.52525   0.77288   0.17027
H          H       0.15509   0.40963   0.77512   0.16860
H          H       0.27652   0.77052   0.15483   0.13612
H          H       0.17606   0.80494   0.09735   0.13346
H          H       0.27477   0.88603   0.11719   0.12840
H          H       0.29458   0.80362   0.92574   0.10858
H          H       0.21229   0.86715   0.98230   0.08739
H          H       0.32702   0.99324   0.98721   0.08348
H          H       0.40376   0.93242   0.92495   0.10876
H          H       0.42188   0.94189   0.08612   0.09478
H          H       0.46548   0.69755   0.13581   0.13185
H          H       0.43450   0.81154   0.16835   0.12539
H          H       0.55418   0.79238   0.12884   0.13700
H          H       0.48780   0.66847   0.00472   0.12724
H          H       0.57444   0.76462   0.99735   0.12491
H          H       0.46669   0.75816   0.94007   0.14825
H          H       0.07475   0.95413   0.92555   0.12506
H          H       0.15981   0.04601   0.90061   0.13653
H          H       0.03863   0.03701   0.85821   0.13293
H          H       0.05410   0.09887   0.08396   0.11006
H          H       0.13267   0.01601   0.04178   0.09613
H          H       0.25928   0.13047   0.02170   0.08221
H          H       0.18752   0.20532   0.07725   0.10747
H          H       0.20244   0.20084   0.91625   0.09491
H          H       0.03089   0.29603   0.85720   0.13046
H          H       0.94553   0.19795   0.85262   0.13887
H          H       0.07579   0.18351   0.83111   0.12194
H          H       0.97916   0.33213   0.97971   0.13111
H          H       0.99184   0.24907   0.05041   0.14514
H          H       0.89626   0.23321   0.98443   0.12614
H          H       0.63449   0.03378   0.30968   0.15325
H          H       0.60523   0.97492   0.22669   0.16403
H          H       0.65555   0.08976   0.22463   0.16244
H          H       0.22326   0.22899   0.65513   0.13520
H          H       0.32355   0.19464   0.59766   0.13222
H          H       0.22487   0.11345   0.61770   0.12839
H          H       0.20750   0.19793   0.42605   0.10776
H          H       0.28939   0.13412   0.48218   0.08720
H          H       0.17444   0.00781   0.48626   0.08320
H          H       0.10145   0.06722   0.42134   0.11032
H          H       0.07411   0.05570   0.58201   0.09551
H          H       0.03459   0.30109   0.63463   0.13103
H          H       0.06591   0.18737   0.66744   0.12480
H          H       0.94535   0.20635   0.62836   0.13578
H          H       0.01195   0.33258   0.50450   0.12824
H          H       0.92567   0.23597   0.49744   0.12488
H          H       0.03232   0.24292   0.43945   0.14930
H          H       0.42532   0.04443   0.42508   0.12423
H          H       0.33959   0.95438   0.39952   0.13636
H          H       0.45865   0.96501   0.35509   0.13524
H          H       0.45030   0.90116   0.58126   0.10906
H          H       0.37079   0.98475   0.53957   0.09617
H          H       0.24308   0.87070   0.52138   0.08274
H          H       0.31522   0.79589   0.57749   0.10759
H          H       0.29694   0.79932   0.41587   0.09644
H          H       0.46908   0.70260   0.35581   0.13152
H          H       0.55442   0.80084   0.35176   0.14121
H          H       0.42433   0.81544   0.33039   0.12309
H          H       0.52091   0.66773   0.47989   0.13079
H          H       0.50720   0.75157   0.54991   0.14518
H          H       0.60399   0.76676   0.48460   0.12652
H          H       0.86080   0.96787   0.81000   0.15991
H          H       0.89140   0.02678   0.72747   0.17134
H          H       0.84016   0.91151   0.72517   0.17032
C          C       0.70911   0.17458   0.47127   0.58783
C          C       0.44854   0.44004   0.48143   0.61641
C          C       0.74178   0.31321   0.39061  -0.42161
C          C       0.68247   0.27946   0.45648   0.03062
C          C       0.71009   0.34125   0.52196  -0.21053
C          C       0.63512   0.42470   0.52299  -0.17032
C          C       0.55662   0.40585   0.46346  -0.15948
C          C       0.56513   0.29785   0.44773   0.21147
C          C       0.52496   0.27336   0.37380  -0.44719
C          C       0.50661   0.24391   0.50498  -0.44119
C          C       0.07690   0.56073   0.52236   0.58980
C          C       0.81688   0.82758   0.52370   0.62134
C          C       0.92062   0.52846   0.59113  -0.41803
C          C       0.96494   0.59211   0.53234   0.03224
C          C       0.90088   0.58464   0.46356  -0.20109
C          C       0.81747   0.66026   0.46898  -0.17556
C          C       0.84329   0.72313   0.53373  -0.16164
C          C       0.95590   0.69970   0.55329   0.21115
C          C       0.97662   0.72033   0.63233  -0.44263
C          C       0.02732   0.75693   0.50639  -0.44129
C          C       0.23580   0.48388   0.25763   0.72135
C          C       0.34048   0.52230   0.24702  -0.57385
C          C       0.79308   0.82669   0.97247   0.59140
C          C       0.05167   0.56025   0.98153   0.61987
C          C       0.75802   0.68826   0.89302  -0.41938
C          C       0.81756   0.72109   0.95923   0.02950
C          C       0.79050   0.65773   0.02360  -0.20879
C          C       0.86522   0.57400   0.02331  -0.16997
C          C       0.94341   0.59379   0.96377  -0.16116
C          C       0.93457   0.70188   0.94892   0.21381
C          C       0.97385   0.72657   0.87464  -0.44594
C          C       0.99437   0.75566   0.00540  -0.44360
C          C       0.42340   0.43921   0.02284   0.58850
C          C       0.68288   0.17237   0.02526   0.62069
C          C       0.57935   0.47171   0.09105  -0.41829
C          C       0.53515   0.40725   0.03289   0.03451
C          C       0.59959   0.41399   0.96425  -0.20085
C          C       0.68378   0.33898   0.97087  -0.17650
C          C       0.65846   0.27716   0.03669  -0.16531
C          C       0.54505   0.29987   0.05450   0.21043
C          C       0.52250   0.27976   0.13320  -0.44387
C          C       0.47436   0.24285   0.00686  -0.44151
C          C       0.26425   0.51567   0.75752   0.72140
C          C       0.15924   0.47750   0.74728  -0.56922
C          C       0.29232   0.67343   0.02871   0.59353
C          C       0.55204   0.93902   0.01931   0.61642
C          C       0.25802   0.81161   0.10689  -0.42074
C          C       0.31801   0.77910   0.04086   0.02957
C          C       0.29032   0.84214   0.97642  -0.20720
C          C       0.36493   0.92595   0.97657  -0.17012
C          C       0.44341   0.90636   0.03604  -0.16310
C          C       0.43508   0.79835   0.05106   0.21315
C          C       0.47381   0.77323   0.12545  -0.44413
C          C       0.49436   0.74420   0.99455  -0.44407
C          C       0.92313   0.06124   0.97777   0.58964
C          C       0.18299   0.32760   0.97609   0.62272
C          C       0.07947   0.02824   0.90899  -0.41721
C          C       0.03507   0.09250   0.96727   0.03504
C          C       0.09967   0.08623   0.03585  -0.20228
C          C       0.18380   0.16130   0.02917  -0.17658
C          C       0.15823   0.22293   0.96332  -0.16270
C          C       0.04480   0.19988   0.94559   0.20860
C          C       0.02268   0.22018   0.86690  -0.44366
C          C       0.97427   0.25716   0.99323  -0.44185
C          C       0.76355   0.98495   0.24802   0.71345
C          C       0.65764   0.02316   0.25396  -0.56780
C          C       0.20799   0.32624   0.52806   0.59056
C          C       0.94727   0.05921   0.51702   0.61616
C          C       0.24151   0.18791   0.60703  -0.41922
C          C       0.18230   0.22035   0.54045   0.02982
C          C       0.21091   0.15781   0.47591  -0.20675
C          C       0.13610   0.07435   0.47435  -0.16855
C          C       0.05587   0.09363   0.53233  -0.16031
C          C       0.06488   0.20147   0.54977   0.21126
C          C       0.02591   0.22529   0.62456  -0.44289
C          C       0.00553   0.25688   0.49410  -0.44450
C          C       0.57645   0.93999   0.47666   0.58924
C          C       0.31695   0.67263   0.47487   0.62215
C          C       0.42023   0.97104   0.40702  -0.41881
C          C       0.46548   0.90633   0.46455   0.03404
C          C       0.40238   0.91371   0.53415  -0.20574
C          C       0.31801   0.83872   0.52865  -0.17378
C          C       0.34218   0.77715   0.46246  -0.16326
C          C       0.45559   0.79919   0.44419   0.20929
C          C       0.47742   0.77827   0.36579  -0.44477
C          C       0.52577   0.74285   0.49287  -0.44001
C          C       0.73278   0.01799   0.74791   0.72435
C          C       0.83780   0.97879   0.75412  -0.57426
O          O       0.73041   0.12307   0.41650  -0.52754
O          O       0.71122   0.14531   0.53568  -0.54372
O          O       0.42284   0.45612   0.54553  -0.54052
O          O       0.38961   0.45302   0.42635  -0.55290
O          O       0.10511   0.53309   0.45943  -0.51997
O          O       0.13360   0.56021   0.57737  -0.55901
O          O       0.78667   0.87250   0.57885  -0.55639
O          O       0.82245   0.86305   0.46045  -0.54048
O          O       0.20466   0.46721   0.32116  -0.55956
O          O       0.18043   0.46614   0.20274  -0.56508
O          O       0.77725   0.87745   0.91736  -0.54826
O          O       0.78777   0.85694   0.03753  -0.52887
O          O       0.07757   0.54561   0.04584  -0.54366
O          O       0.11065   0.54706   0.92658  -0.55007
O          O       0.39554   0.46698   0.95986  -0.51720
O          O       0.36599   0.43894   0.07744  -0.56037
O          O       0.71715   0.12562   0.07967  -0.53360
O          O       0.67206   0.13858   0.96267  -0.55269
O          O       0.29499   0.53042   0.82147  -0.56104
O          O       0.31884   0.53471   0.70224  -0.56925
O          O       0.27652   0.62255   0.08351  -0.55405
O          O       0.28896   0.64227   0.96364  -0.52877
O          O       0.57668   0.95411   0.95466  -0.53354
O          O       0.61046   0.95308   0.07434  -0.55059
O          O       0.89523   0.03264   0.04036  -0.52134
O          O       0.86661   0.06162   0.92254  -0.55345
O          O       0.21665   0.37496   0.92162  -0.53556
O          O       0.17168   0.36204   0.03826  -0.55903
O          O       0.79964   0.96690   0.18539  -0.57254
O          O       0.81315   0.96717   0.30560  -0.56426
O          O       0.22561   0.37685   0.58269  -0.55231
O          O       0.21138   0.35738   0.46301  -0.52877
O          O       0.91927   0.04205   0.45250  -0.52080
O          O       0.89190   0.04665   0.57256  -0.56880
O          O       0.60228   0.96728   0.53892  -0.53739
O          O       0.63505   0.94252   0.42141  -0.53694
O          O       0.28337   0.62560   0.42031  -0.53655
O          O       0.32638   0.63777   0.53704  -0.56146
O          O       0.69825   0.03705   0.68550  -0.56253
O          O       0.68208   0.03334   0.80515  -0.55512

