data_crystal

_audit_creation_method 'AiiDA-DDEC plugin'

_cell_length_a        18.99949
_cell_length_b        19.00346
_cell_length_c        19.00212

_cell_angle_alpha     74.86630
_cell_angle_beta     74.82854
_cell_angle_gamma     74.82732

_symmetry_space_group_name_Hall 'P 1'
_symmetry_space_group_name_H-M  'P 1'

loop_
_symmetry_equiv_pos_as_xyz
 'x,y,z'

loop_
_atom_site_label
_atom_site_type_symbol
_atom_site_fract_x
_atom_site_fract_y
_atom_site_fract_z
_atom_site_charge
Zn         Zn      0.68626   0.46199   0.97352   0.90676
Zn         Zn      0.74972   0.38110   0.10635   0.93336
Zn         Zn      0.46190   0.97311   0.68618   0.90750
Zn         Zn      0.38088   0.10630   0.74963   0.93272
Zn         Zn      0.97330   0.68633   0.46205   0.90783
Zn         Zn      0.10621   0.75108   0.38080   0.93387
Zn         Zn      0.96203   0.18630   0.47329   0.90716
Zn         Zn      0.88095   0.24917   0.60648   0.93330
Zn         Zn      0.47281   0.96197   0.18620   0.90878
Zn         Zn      0.60625   0.88063   0.25119   0.93529
Zn         Zn      0.18629   0.47364   0.96211   0.90785
Zn         Zn      0.25103   0.60626   0.88072   0.93447
H          H       0.44668   0.50445   0.97433   0.14359
H          H       0.27647   0.43257   0.15861   0.12809
H          H       0.50377   0.38923   0.18551   0.13694
H          H       0.25838   0.45406   0.27830   0.12027
H          H       0.80189   0.32032   0.82733   0.13637
H          H       0.95770   0.11189   0.82159   0.13153
H          H       0.87377   0.19046   0.02805   0.13202
H          H       0.87656   0.05963   0.06626   0.12005
H          H       0.50417   0.97398   0.44623   0.13913
H          H       0.43222   0.15866   0.27651   0.12631
H          H       0.38862   0.18474   0.50418   0.13352
H          H       0.45349   0.27797   0.25902   0.12075
H          H       0.32027   0.82736   0.80177   0.14090
H          H       0.11192   0.82145   0.95780   0.13196
H          H       0.19036   0.02792   0.87400   0.13183
H          H       0.05964   0.06605   0.87689   0.12043
H          H       0.97334   0.44608   0.50499   0.14348
H          H       0.15830   0.27681   0.43244   0.12815
H          H       0.18420   0.50434   0.39015   0.13399
H          H       0.27759   0.25906   0.45421   0.12169
H          H       0.82728   0.80184   0.32045   0.13679
H          H       0.82141   0.95765   0.11208   0.12795
H          H       0.02791   0.87384   0.19053   0.13140
H          H       0.06613   0.87670   0.05975   0.11726
H          H       0.00422   0.94642   0.47408   0.14287
H          H       0.93245   0.77664   0.65877   0.13037
H          H       0.88863   0.00433   0.68487   0.13441
H          H       0.95365   0.75906   0.77797   0.11947
H          H       0.82040   0.30183   0.32734   0.14093
H          H       0.61188   0.45771   0.32159   0.13140
H          H       0.69040   0.37379   0.52800   0.13166
H          H       0.55967   0.37668   0.56619   0.12005
H          H       0.47278   0.00346   0.94613   0.14511
H          H       0.65868   0.93284   0.77667   0.12971
H          H       0.68353   0.88928   0.00476   0.13299
H          H       0.77758   0.95415   0.75942   0.11802
H          H       0.32740   0.82022   0.30190   0.14101
H          H       0.32139   0.61193   0.45777   0.13147
H          H       0.52797   0.69023   0.37398   0.13170
H          H       0.56609   0.55959   0.37686   0.12044
H          H       0.94651   0.47402   0.00439   0.14338
H          H       0.77645   0.65855   0.93261   0.12820
H          H       0.00404   0.68487   0.88895   0.13323
H          H       0.75866   0.77789   0.95417   0.11888
H          H       0.30194   0.32717   0.82045   0.14127
H          H       0.45770   0.32138   0.61191   0.13140
H          H       0.37375   0.52782   0.69053   0.13136
H          H       0.37655   0.56602   0.55979   0.12050
C          C       0.56234   0.44873   0.04275   0.56569
C          C       0.48287   0.44629   0.07681  -0.02902
C          C       0.42967   0.47785   0.03226  -0.09881
C          C       0.35532   0.47245   0.06233  -0.03813
C          C       0.33413   0.43808   0.13699  -0.12447
C          C       0.38633   0.40894   0.18307   0.06439
C          C       0.46139   0.41224   0.15191  -0.12188
C          C       0.29941   0.49947   0.01395   0.60024
C          C       0.36033   0.37147   0.26103   0.07332
C          C       0.29076   0.40095   0.30216  -0.18352
C          C       0.78593   0.32020   0.97255   0.60253
C          C       0.83338   0.26123   0.93210  -0.04760
C          C       0.83541   0.27120   0.85604  -0.09168
C          C       0.88069   0.21727   0.81668  -0.02577
C          C       0.92393   0.15364   0.85325  -0.12529
C          C       0.92164   0.14224   0.92991   0.06374
C          C       0.87597   0.19688   0.96894  -0.12474
C          C       0.96408   0.07181   0.96807   0.07386
C          C       0.93166   0.03454   0.03838  -0.18395
C          C       0.88025   0.22779   0.73650   0.54703
C          C       0.44762   0.04250   0.56242   0.56857
C          C       0.44566   0.07631   0.48286  -0.03200
C          C       0.47744   0.03193   0.42952  -0.09406
C          C       0.47211   0.06220   0.35518  -0.03720
C          C       0.43767   0.13687   0.33417  -0.12441
C          C       0.40844   0.18279   0.38656   0.06474
C          C       0.41165   0.15142   0.46155  -0.11866
C          C       0.49931   0.01388   0.29919   0.59830
C          C       0.37095   0.26081   0.36090   0.07324
C          C       0.40037   0.30190   0.29137  -0.18322
C          C       0.32011   0.97249   0.78606   0.60368
C          C       0.26114   0.93203   0.83344  -0.04851
C          C       0.27112   0.85600   0.83536  -0.09595
C          C       0.21723   0.81662   0.88062  -0.02523
C          C       0.15363   0.85312   0.92399  -0.12557
C          C       0.14224   0.92976   0.92182   0.06448
C          C       0.19681   0.96883   0.87615  -0.12512
C          C       0.07181   0.96789   0.96432   0.07460
C          C       0.03452   0.03819   0.93194  -0.18549
C          C       0.22795   0.73639   0.88032   0.54687
C          C       0.04160   0.56234   0.44895   0.56559
C          C       0.07570   0.48287   0.44685  -0.02736
C          C       0.03136   0.42950   0.47830  -0.09738
C          C       0.06175   0.35526   0.47267  -0.03899
C          C       0.13646   0.33437   0.43821  -0.12473
C          C       0.18236   0.38674   0.40933   0.06460
C          C       0.15093   0.46167   0.41291  -0.12150
C          C       0.01357   0.29921   0.49965   0.59901
C          C       0.26039   0.36094   0.37174   0.07381
C          C       0.30147   0.29133   0.40105  -0.18501
C          C       0.97240   0.78620   0.32036   0.60262
C          C       0.93197   0.83343   0.26132  -0.04888
C          C       0.85592   0.83538   0.27129  -0.09156
C          C       0.81657   0.88059   0.21737  -0.02573
C          C       0.85309   0.92388   0.15378  -0.12163
C          C       0.92975   0.92169   0.14239   0.06299
C          C       0.96880   0.87604   0.19698  -0.12382
C          C       0.96785   0.96416   0.07198   0.07494
C          C       0.03821   0.93176   0.03469  -0.18242
C          C       0.73634   0.88030   0.22803   0.54651
C          C       0.94786   0.06252   0.54252   0.56828
C          C       0.94578   0.98303   0.57645  -0.03129
C          C       0.97754   0.92970   0.53206  -0.09695
C          C       0.97222   0.85537   0.56232  -0.03821
C          C       0.93780   0.83433   0.63700  -0.12754
C          C       0.90850   0.88670   0.68294   0.06499
C          C       0.91173   0.96170   0.65157  -0.11976
C          C      -0.00059   0.79938   0.51400   0.59957
C          C       0.87100   0.86092   0.76098   0.07326
C          C       0.90049   0.79133   0.80195  -0.18153
C          C       0.82029   0.28607   0.47247   0.60303
C          C       0.76127   0.33341   0.43203  -0.04856
C          C       0.77121   0.33537   0.35599  -0.09525
C          C       0.71724   0.38061   0.31667  -0.02555
C          C       0.65362   0.42392   0.35323  -0.12498
C          C       0.64227   0.42168   0.42987   0.06372
C          C       0.69689   0.37603   0.46888  -0.12441
C          C       0.57182   0.46413   0.46803   0.07418
C          C       0.53453   0.43173   0.53833  -0.18452
C          C       0.72788   0.38031   0.23645   0.54651
C          C       0.54055   0.94832   0.06239   0.56492
C          C       0.57503   0.94569   0.98307  -0.02770
C          C       0.53091   0.97711   0.92955  -0.09966
C          C       0.56170   0.97217   0.85521  -0.03756
C          C       0.63655   0.93810   0.83437  -0.12624
C          C       0.68223   0.90893   0.88696   0.06306
C          C       0.65041   0.91209   0.96196  -0.11873
C          C       0.51363  -0.00056   0.79908   0.59812
C          C       0.76039   0.87152   0.86119   0.07324
C          C       0.80149   0.90096   0.79161  -0.18175
C          C       0.47247   0.82004   0.28621   0.60298
C          C       0.43205   0.76105   0.33355  -0.04710
C          C       0.35600   0.77105   0.33545  -0.09631
C          C       0.31661   0.71716   0.38064  -0.02500
C          C       0.35310   0.65360   0.42400  -0.12544
C          C       0.42974   0.64219   0.42185   0.06441
C          C       0.46884   0.69674   0.37620  -0.12552
C          C       0.46784   0.57178   0.46432   0.07374
C          C       0.53819   0.53451   0.43192  -0.18537
C          C       0.23637   0.72787   0.38030   0.54696
C          C       0.06242   0.54245   0.94863   0.56607
C          C       0.98292   0.57641   0.94617  -0.03028
C          C       0.92964   0.53196   0.97776  -0.09711
C          C       0.85528   0.56213   0.97236  -0.03807
C          C       0.83414   0.63682   0.93802  -0.12471
C          C       0.88643   0.68280   0.90885   0.06411
C          C       0.96149   0.65150   0.91209  -0.11874
C          C       0.79931   0.51382  -0.00051   0.59871
C          C       0.86049   0.76085   0.87148   0.07346
C          C       0.79090   0.80191   0.90105  -0.18222
C          C       0.28618   0.47235   0.82040   0.60166
C          C       0.33345   0.43187   0.76137  -0.04728
C          C       0.33543   0.35584   0.77128  -0.09619
C          C       0.38063   0.31652   0.71726  -0.02556
C          C       0.42393   0.35305   0.65367  -0.12491
C          C       0.42166   0.42969   0.64234   0.06329
C          C       0.37602   0.46871   0.69699  -0.12487
C          C       0.46409   0.46786   0.57193   0.07477
C          C       0.43166   0.53817   0.53469  -0.18496
C          C       0.38024   0.23633   0.72781   0.54751
O          O       0.61406   0.41468   0.07843  -0.56153
O          O       0.57840   0.48586   0.97502  -0.52223
O          O       0.31433   0.54640   0.95363  -0.53840
O          O       0.24010   0.47213   0.03622  -0.53702
O          O       0.83462   0.28303   0.70662  -0.52896
O          O       0.92477   0.18239   0.69686  -0.52782
O          O       0.77841   0.30705   0.04336  -0.53434
O          O       0.75592   0.38058   0.93252  -0.53424
O          O       0.41230   0.07804   0.61394  -0.56173
O          O       0.48585   0.97519   0.57853  -0.52233
O          O       0.54636   0.95365   0.31423  -0.53730
O          O       0.47195   0.03605   0.23989  -0.53592
O          O       0.28351   0.70654   0.83479  -0.53093
O          O       0.18266   0.69673   0.92473  -0.52637
O          O       0.30694   0.04329   0.77850  -0.53366
O          O       0.38060   0.93241   0.75619  -0.53541
O          O       0.07740   0.61393   0.41470  -0.56154
O          O       0.97389   0.57858   0.48607  -0.52310
O          O       0.95321   0.31399   0.54658  -0.53694
O          O       0.03611   0.23990   0.47222  -0.53776
O          O       0.70653   0.83487   0.28367  -0.53058
O          O       0.69665   0.92455   0.18269  -0.52556
O          O       0.04327   0.77844   0.30701  -0.53477
O          O       0.93235   0.75666   0.38101  -0.53442
O          O       0.91298   0.11412   0.57811  -0.56214
O          O       0.98582   0.07856   0.47511  -0.52242
O          O       0.04640   0.81436   0.45370  -0.53782
O          O       0.97216   0.74004   0.53621  -0.53685
O          O       0.78321   0.33470   0.20657  -0.52955
O          O       0.68254   0.42483   0.19683  -0.52721
O          O       0.80700   0.27839   0.54330  -0.53381
O          O       0.88091   0.25639   0.43239  -0.53533
O          O       0.57729   0.91737   0.11387  -0.56069
O          O       0.47177   0.98286   0.07872  -0.52331
O          O       0.45336   0.04648   0.81398  -0.53727
O          O       0.53604   0.97211   0.73972  -0.53663
O          O       0.20659   0.78342   0.33478  -0.53035
O          O       0.19662   0.68264   0.42466  -0.52680
O          O       0.54335   0.80683   0.27844  -0.53688
O          O       0.43236   0.88052   0.25658  -0.53514
O          O       0.11410   0.57822   0.91474  -0.56119
O          O       0.07849   0.47475   0.98582  -0.52248
O          O       0.81416   0.45354   0.04646  -0.53697
O          O       0.73998   0.53615   0.97212  -0.53743
O          O       0.33454   0.20655   0.78306  -0.52886
O          O       0.42478   0.19665   0.68247  -0.52849
O          O       0.27842   0.54321   0.80697  -0.53497
O          O       0.25661   0.43241   0.88111  -0.53442

