data_crystal

_audit_creation_method 'AiiDA-DDEC plugin'

_cell_length_a        17.37029
_cell_length_b        21.44678
_cell_length_c        24.90381

_cell_angle_alpha     90.02024
_cell_angle_beta     89.98481
_cell_angle_gamma     89.98441

_symmetry_space_group_name_Hall 'P 1'
_symmetry_space_group_name_H-M  'P 1'

loop_
_symmetry_equiv_pos_as_xyz
 'x,y,z'

loop_
_atom_site_label
_atom_site_type_symbol
_atom_site_fract_x
_atom_site_fract_y
_atom_site_fract_z
_atom_site_charge
Co         Co      0.00095   0.93242   0.68047   1.14897
Co         Co      0.49852   0.43166   0.31857   1.14562
Co         Co      0.00081   0.93298   0.81972   1.15087
Co         Co      0.49852   0.43246   0.17927   1.15551
Co         Co      0.40168   0.34763   0.25022   1.16636
Co         Co      0.09743   0.84732   0.75008   1.16934
Co         Co     -0.00150   0.06719   0.18040   1.14817
Co         Co      0.50147   0.56783   0.81890   1.14767
Co         Co     -0.00126   0.06659   0.32005   1.15308
Co         Co      0.50146   0.56744   0.67958   1.15036
Co         Co      0.59842   0.65146   0.74963   1.16998
Co         Co      0.90266   0.15199   0.25009   1.16406
H          H       0.39542   0.19105   0.35209   0.12398
H          H       0.62559   0.10986   0.51201   0.11069
H          H       0.29846   0.08545   0.57488   0.11608
H          H       0.51684   0.98077   0.62036   0.10406
H          H       0.58409   0.21218   0.50091   0.11414
H          H       0.57157   0.29608   0.43215   0.12439
H          H       0.17985   0.04136   0.61522   0.12674
H          H       0.40502   0.10797   0.42175   0.10377
H          H       0.42159   0.91740   0.61620   0.10612
H          H       0.30413   0.87647   0.66039   0.12696
H          H       0.74298   0.96286   0.70113   0.12236
H          H       0.37983   0.08987   0.51177   0.10968
H          H       0.61560  -0.00133   0.66790   0.11304
H          H       0.71728   0.04008   0.51385   0.11012
H          H       0.84557   0.01050   0.54955   0.12731
H          H       0.10430   0.69161   0.64760   0.12421
H          H       0.87347   0.60959   0.48794   0.11037
H          H       0.20131   0.58571   0.42533   0.11282
H          H       0.98315   0.48074   0.37971   0.10380
H          H       0.91529   0.71226   0.49890   0.11425
H          H       0.92843   0.79670   0.56725   0.12497
H          H       0.31978   0.54175   0.38466   0.12541
H          H       0.09400   0.60804   0.57842   0.10224
H          H       0.07824   0.41766   0.38412   0.10431
H          H       0.19544   0.37667   0.33980   0.12768
H          H       0.75804   0.46251   0.29789   0.12069
H          H       0.11932   0.59018   0.48858   0.10962
H          H       0.88491   0.49824   0.33191   0.11409
H          H       0.78145   0.54026   0.48520   0.11075
H          H       0.65357   0.51084   0.44877   0.12726
H          H       0.39508   0.19221   0.14761   0.12376
H          H       0.62562   0.10946   0.98815   0.11048
H          H       0.29833   0.08542   0.92527   0.11292
H          H       0.51665   0.98053   0.87978   0.10478
H          H       0.58415   0.21216  -0.00120   0.11455
H          H       0.57149   0.29653   0.06711   0.12510
H          H       0.17978   0.04140   0.88483   0.12710
H          H       0.40481   0.10855   0.07843   0.10375
H          H       0.42142   0.91728   0.88393   0.10553
H          H       0.30401   0.87643   0.83964   0.12708
H          H       0.74354   0.96444   0.79859   0.12156
H          H       0.37979   0.08995   0.98835   0.10910
H          H       0.61568  -0.00089   0.83201   0.11307
H          H       0.71685   0.04010   0.98634   0.11035
H          H       0.84551   0.01155   0.95048   0.12705
H          H       0.10402   0.69244   0.85247   0.12449
H          H       0.87335   0.61007   0.01195   0.11215
H          H       0.20060   0.58646   0.07440   0.11299
H          H       0.98290   0.48089   0.11979   0.10433
H          H       0.91513   0.71276   0.00132   0.11442
H          H       0.92812   0.79728   0.93304   0.12432
H          H       0.31944   0.54278   0.11463   0.12639
H          H       0.09397   0.60875   0.92153   0.10394
H          H       0.07828   0.41818   0.11586   0.10536
H          H       0.19578   0.37764   0.16015   0.12672
H          H       0.75735   0.46313   0.20137   0.11920
H          H       0.11917   0.59050   0.01115   0.10919
H          H       0.88464   0.49909   0.16778   0.11291
H          H       0.78216   0.54012   0.01387   0.11024
H          H       0.65404   0.51019   0.04997   0.12765
H          H       0.60482   0.80839   0.85187   0.12377
H          H       0.37394   0.89013   0.01174   0.11098
H          H       0.70129   0.91435   0.07470   0.11289
H          H       0.48290   0.01905   0.12015   0.10433
H          H       0.41564   0.78749   0.00050   0.11417
H          H       0.42866   0.70341   0.93195   0.12485
H          H       0.81980   0.95860   0.11508   0.12674
H          H       0.59469   0.89174   0.92124   0.10319
H          H       0.57798   0.08243   0.11602   0.10567
H          H       0.69532   0.12346   0.16023   0.12739
H          H       0.25749   0.03723   0.20143   0.12157
H          H       0.61980   0.90978   0.01152   0.10988
H          H       0.38460   0.00117   0.16786   0.11336
H          H       0.28225   0.95993   0.01400   0.10986
H          H       0.15415   0.98992   0.05010   0.12692
H          H       0.89557   0.30792   0.14764   0.12419
H          H       0.12670   0.39035   0.98796   0.11282
H          H       0.79918   0.41382   0.92565   0.11310
H          H       0.01692   0.51923   0.87991   0.10350
H          H       0.08472   0.28727  -0.00103   0.11400
H          H       0.07157   0.20298   0.06734   0.12455
H          H       0.68041   0.45723   0.88511   0.12665
H          H       0.90562   0.39141   0.07842   0.10271
H          H       0.92130   0.58226   0.88417   0.10562
H          H       0.80384   0.62256   0.83977   0.12678
H          H       0.24177   0.53755   0.79791   0.12053
H          H       0.88084   0.40973   0.98875   0.10918
H          H       0.11496   0.50176   0.83197   0.11375
H          H       0.21858   0.45985   0.98525   0.11048
H          H       0.34643   0.48936   0.94860   0.12665
H          H       0.60504   0.80812   0.64765   0.12408
H          H       0.37386   0.89027   0.48829   0.11069
H          H       0.70119   0.91457   0.42564   0.11323
H          H       0.48286   0.01909   0.37986   0.10446
H          H       0.41548   0.78774   0.49924   0.11433
H          H       0.42874   0.70337   0.56750   0.12492
H          H       0.81990   0.95885   0.38559   0.12626
H          H       0.59463   0.89180   0.57858   0.10349
H          H       0.57798   0.08257   0.38427   0.10607
H          H       0.69549   0.12367   0.34029   0.12731
H          H       0.25658   0.03556   0.29863   0.12150
H          H       0.61964   0.90997   0.48858   0.10955
H          H       0.38429   0.00054   0.33211   0.11330
H          H       0.28265   0.95965   0.48632   0.11040
H          H       0.15411   0.98855   0.45034   0.12763
H          H       0.89594   0.30766   0.35242   0.12497
H          H       0.12703   0.39006   0.51199   0.11062
H          H       0.79941   0.41355   0.57386   0.11634
H          H       0.01707   0.51897   0.61999   0.10440
H          H       0.08514   0.28712   0.50100   0.11468
H          H       0.07182   0.20265   0.43272   0.12498
H          H       0.68048   0.45724   0.61411   0.12665
H          H       0.90627   0.39131   0.42153   0.10393
H          H       0.92162   0.58198   0.61554   0.10546
H          H       0.80395   0.62245   0.65973   0.12761
H          H       0.24305   0.53674   0.70139   0.12027
H          H       0.88121   0.40954   0.51092   0.10921
H          H       0.11561   0.50099   0.66791   0.11325
H          H       0.21775   0.46021   0.51379   0.11051
H          H       0.34603   0.48982   0.54987   0.12709
C          C       0.58050   0.04227   0.56829   0.06810
C          C       0.87740   0.96561   0.64915   0.52878
C          C       0.43618   0.19522   0.38503  -0.08735
C          C       0.50203   0.10546   0.50781   0.07354
C          C       0.57411   0.08793   0.52816  -0.17884
C          C       0.48275   0.24861   0.38805  -0.04316
C          C       0.29979   0.03899   0.59227  -0.14376
C          C       0.65676   0.02235   0.58843   0.07482
C          C       0.80214   0.98505   0.62765  -0.03825
C          C       0.49577   0.15409   0.46604   0.07538
C          C       0.51281   0.01553   0.58876  -0.17758
C          C       0.23489   0.95646   0.64057  -0.04585
C          C       0.54321   0.20725   0.46810  -0.14138
C          C       0.36928   0.00506   0.59261   0.07447
C          C       0.47431   0.29943   0.34782   0.59528
C          C       0.53627   0.25430   0.42997  -0.08530
C          C       0.23327   0.01495   0.61536  -0.09029
C          C       0.44190   0.14894   0.42405  -0.14901
C          C       0.16479   0.93154   0.66711   0.59515
C          C       0.43991   0.03239   0.56932   0.07507
C          C       0.36953   0.94560   0.61674  -0.14069
C          C       0.30356   0.92191   0.64102  -0.08440
C          C       0.73656   0.98057   0.66045  -0.09321
C          C       0.43562   0.07684   0.52810  -0.17566
C          C       0.66526  -0.00018   0.64130  -0.14045
C          C       0.72270   0.02504   0.55543  -0.13758
C          C       0.79474   0.00763   0.57498  -0.08733
C          C       0.91898   0.54210   0.43165   0.06679
C          C       0.62269   0.46453   0.34953   0.53195
C          C       0.06336   0.69568   0.61476  -0.09185
C          C       0.99708   0.60537   0.49236   0.07078
C          C       0.92509   0.58772   0.47190  -0.17751
C          C       0.01696   0.74916   0.61161  -0.04082
C          C       0.19993   0.53928   0.40784  -0.14145
C          C       0.84290   0.52224   0.41106   0.07693
C          C       0.69777   0.48483   0.37102  -0.03767
C          C       0.00341   0.65419   0.53398   0.07616
C          C       0.98689   0.51548   0.41135  -0.17642
C          C       0.26495   0.45670   0.35945  -0.04686
C          C       0.95621   0.70748   0.53173  -0.14119
C          C       0.13047   0.50531   0.40760   0.07477
C          C       0.02554   0.80008   0.65180   0.59540
C          C       0.96345   0.75478   0.56965  -0.08592
C          C       0.26642   0.51525   0.38461  -0.08721
C          C       0.05735   0.64913   0.57597  -0.14500
C          C       0.33505   0.43167   0.33282   0.59385
C          C       0.05968   0.53245   0.43091   0.07422
C          C       0.13029   0.44586   0.38345  -0.13830
C          C       0.19625   0.42213   0.35913  -0.08513
C          C       0.76378   0.48032   0.33860  -0.09140
C          C       0.06369   0.57688   0.47216  -0.17320
C          C       0.83488   0.49960   0.35816  -0.14323
C          C       0.77653   0.52517   0.44359  -0.13871
C          C       0.70470   0.50777   0.42364  -0.08703
C          C       0.58032   0.04198   0.93193   0.06782
C          C       0.87753   0.96701   0.85085   0.53198
C          C       0.43607   0.19595   0.11477  -0.08750
C          C       0.50197   0.10538   0.99237   0.07289
C          C       0.57402   0.08764   0.97209  -0.17944
C          C       0.48285   0.24918   0.11158  -0.04655
C          C       0.29969   0.03896   0.90786  -0.14101
C          C       0.65661   0.02238   0.91166   0.07566
C          C       0.80226   0.98634   0.87230  -0.03981
C          C       0.49580   0.15425   0.03396   0.07599
C          C       0.51266   0.01528   0.91141  -0.17741
C          C       0.23482   0.95649   0.85946  -0.04641
C          C       0.54330   0.20737   0.03167  -0.14076
C          C       0.36914   0.00497   0.90754   0.07506
C          C       0.47431   0.30026   0.15155   0.59992
C          C       0.53634   0.25467   0.06959  -0.08533
C          C       0.23319   0.01497   0.88470  -0.09073
C          C       0.44183   0.14939   0.07595  -0.14684
C          C       0.16480   0.93159   0.83281   0.59625
C          C       0.43979   0.03223   0.93086   0.07472
C          C       0.36938   0.94551   0.88337  -0.13988
C          C       0.30344   0.92188   0.85903  -0.08456
C          C       0.73683   0.98175   0.83939  -0.09241
C          C       0.43555   0.07676   0.97206  -0.17418
C          C       0.66531   0.00035   0.85863  -0.13922
C          C       0.72247   0.02532   0.94469  -0.14007
C          C       0.79468   0.00854   0.92508  -0.08449
C          C       0.91895   0.54242   0.06796   0.06777
C          C       0.62278   0.46571   0.14923   0.53183
C          C       0.06312   0.69634   0.88534  -0.08950
C          C       0.99696   0.60587   0.00750   0.07220
C          C       0.92499   0.58819   0.02791  -0.17955
C          C       0.01668   0.74978   0.88864  -0.04363
C          C       0.19957   0.53997   0.09174  -0.14046
C          C       0.84293   0.52252   0.08838   0.07663
C          C       0.69802   0.48516   0.12789  -0.03960
C          C       0.00320   0.65475   0.96601   0.07709
C          C       0.98674   0.51574   0.08826  -0.17771
C          C       0.26488   0.45764   0.14006  -0.04862
C          C       0.95596   0.70801   0.96842  -0.14246
C          C       0.13026   0.50583   0.09211   0.07411
C          C       0.02539   0.80060   0.84848   0.59667
C          C       0.96314   0.75535   0.93058  -0.08421
C          C       0.26622   0.51610   0.11477  -0.08933
C          C       0.05718   0.64975   0.92404  -0.14789
C          C       0.33497   0.43283   0.16679   0.59610
C          C       0.05951   0.53284   0.06880   0.07608
C          C       0.13025   0.44644   0.11632  -0.13986
C          C       0.19632   0.42295   0.14060  -0.08369
C          C       0.76363   0.48084   0.16066  -0.08985
C          C       0.06353   0.57729   0.02759  -0.17535
C          C       0.83479   0.50015   0.14134  -0.14010
C          C       0.77694   0.52514   0.05547  -0.13972
C          C       0.70509   0.50761   0.07518  -0.08584
C          C       0.41921   0.95754   0.06811   0.06744
C          C       0.12262   0.03473   0.14933   0.52885
C          C       0.56387   0.80431   0.88471  -0.08929
C          C       0.49759   0.89437   0.00745   0.07415
C          C       0.42551   0.91195   0.02786  -0.17959
C          C       0.51740   0.75088   0.88779  -0.04220
C          C       0.69986   0.96082   0.09208  -0.14035
C          C       0.34307   0.97748   0.08848   0.07552
C          C       0.19800   0.01532   0.12795  -0.03889
C          C       0.50392   0.84568   0.96566   0.07366
C          C       0.48692   0.98427   0.08854  -0.17613
C          C       0.76466   0.04345   0.14034  -0.04534
C          C       0.45661   0.79245   0.96772  -0.13970
C          C       0.63038   0.99475   0.09238   0.07614
C          C       0.52595   0.69969   0.84785   0.59830
C          C       0.46378   0.74529   0.92969  -0.08670
C          C       0.76630   0.98492   0.11520  -0.09072
C          C       0.55789   0.85075   0.92365  -0.14604
C          C       0.83503   0.06838   0.16656   0.59373
C          C       0.55978   0.96739   0.06907   0.07266
C          C       0.63004   0.05422   0.11657  -0.13978
C          C       0.69596   0.07798   0.14089  -0.08584
C          C       0.26366   0.01957   0.16069  -0.09136
C          C       0.56403   0.92292   0.02782  -0.17527
C          C       0.33481   0.00005   0.14138  -0.14211
C          C       0.27703   0.97494   0.05561  -0.13737
C          C       0.20518   0.99265   0.07531  -0.08700
C          C       0.08104   0.45782   0.93178   0.06638
C          C       0.37723   0.53512   0.84949   0.53100
C          C       0.93655   0.30395   0.11479  -0.09047
C          C       0.00306   0.39442   0.99248   0.07281
C          C       0.07502   0.41216   0.97199  -0.17984
C          C       0.98304   0.25051   0.11167  -0.04291
C          C       0.80024   0.46024   0.90817  -0.14151
C          C       0.15707   0.47773   0.91112   0.07673
C          C       0.30205   0.51526   0.87100  -0.03678
C          C       0.99674   0.34558   0.03410   0.07547
C          C       0.01315   0.48447   0.91153  -0.17547
C          C       0.73493   0.54232   0.85950  -0.04750
C          C       0.04387   0.29222   0.03183  -0.14041
C          C       0.86954   0.49443   0.90783   0.07556
C          C       0.97440   0.19956   0.15183   0.59546
C          C       0.03656   0.24492   0.06972  -0.08578
C          C       0.73361   0.48393   0.88492  -0.08967
C          C       0.94260   0.35050   0.07601  -0.14547
C          C       0.66498   0.56698   0.83248   0.59646
C          C       0.94040   0.46742   0.93110   0.07424
C          C       0.86944   0.55383   0.88362  -0.14026
C          C       0.80339   0.57716   0.85920  -0.08388
C          C       0.23603   0.51977   0.83863  -0.09175
C          C       0.93648   0.42294   0.97231  -0.17484
C          C       0.16499   0.50039   0.85822  -0.14291
C          C       0.22347   0.47489   0.94363  -0.13877
C          C       0.29523   0.49236   0.92360  -0.08663
C          C       0.41923   0.95763   0.43199   0.06623
C          C       0.12238   0.03288   0.35082   0.53225
C          C       0.56394   0.80422   0.61489  -0.08833
C          C       0.49749   0.89452   0.49258   0.07291
C          C       0.42547   0.91209   0.47222  -0.17815
C          C       0.51738   0.75084   0.61172  -0.04591
C          C       0.69987   0.96106   0.40831  -0.14099
C          C       0.34304   0.97724   0.41167   0.07768
C          C       0.19765   0.01363   0.37225  -0.03915
C          C       0.50381   0.84578   0.53422   0.07454
C          C       0.48688   0.98439   0.41151  -0.17504
C          C       0.76483   0.04369   0.36016  -0.04581
C          C       0.45646   0.79258   0.53200  -0.13971
C          C       0.63036   0.99496   0.40787   0.07524
C          C       0.52602   0.69968   0.65159   0.59968
C          C       0.46372   0.74530   0.56987  -0.08530
C          C       0.76642   0.98519   0.38535  -0.08951
C          C       0.55785   0.85079   0.57614  -0.14671
C          C       0.83494   0.06849   0.33348   0.59411
C          C       0.55971   0.96759   0.43106   0.07232
C          C       0.63009   0.05443   0.38378  -0.13961
C          C       0.69612   0.07820   0.35961  -0.08604
C          C       0.26317   0.01815   0.33940  -0.09182
C          C       0.56391   0.92313   0.47226  -0.17461
C          C       0.33456  -0.00064   0.35867  -0.14072
C          C       0.27714   0.97444   0.44468  -0.13974
C          C       0.20504   0.99142   0.42502  -0.08657
C          C       0.08116   0.45760   0.56803   0.06760
C          C       0.37741   0.53433   0.64925   0.53322
C          C       0.93696   0.30369   0.38520  -0.09052
C          C       0.00340   0.39416   0.50738   0.07359
C          C       0.07529   0.41189   0.52789  -0.17863
C          C       0.98336   0.25020   0.38841  -0.04230
C          C       0.80047   0.46000   0.59132  -0.14401
C          C       0.15715   0.47763   0.58842   0.07629
C          C       0.30220   0.51482   0.62786  -0.04131
C          C       0.99716   0.34531   0.46582   0.07498
C          C       0.01330   0.48422   0.58834  -0.17751
C          C       0.73510   0.54226   0.63972  -0.04695
C          C       0.04429   0.29199   0.46814  -0.14078
C          C       0.86975   0.49418   0.59183   0.07467
C          C       0.97461   0.19928   0.34829   0.59539
C          C       0.03692   0.24463   0.43031  -0.08629
C          C       0.73377   0.48382   0.61438  -0.08905
C          C       0.94308   0.35029   0.42392  -0.14645
C          C       0.66499   0.56702   0.66640   0.59347
C          C       0.94062   0.46716   0.56869   0.07557
C          C       0.86970   0.55361   0.61602  -0.13945
C          C       0.80358   0.57704   0.64029  -0.08567
C          C       0.23662   0.51914   0.66067  -0.08873
C          C       0.93680   0.42271   0.52746  -0.17603
C          C       0.16538   0.49995   0.64139  -0.14201
C          C       0.22310   0.47510   0.55544  -0.13957
C          C       0.29501   0.49246   0.57512  -0.08470
O          O       0.10161   0.96162   0.65902  -0.53658
O          O       0.43788   0.28660   0.30442  -0.55050
O          O       0.50379   0.35229   0.35958  -0.55004
O          O       0.17170   0.88248   0.69553  -0.55153
O          O       0.88270   0.93024   0.69029  -0.47331
O          O       0.94175   0.98351   0.62750  -0.50047
O          O       0.39784   0.46289   0.33882  -0.53216
O          O       0.06236   0.78748   0.69507  -0.55021
O          O       0.99575   0.85284   0.64017  -0.54966
O          O       0.32847   0.38107   0.30630  -0.55371
O          O       0.61756   0.42830   0.30906  -0.47135
O          O       0.55799   0.48237   0.37078  -0.50158
O          O       0.10164   0.96174   0.84085  -0.53707
O          O       0.43710   0.28853   0.19474  -0.55059
O          O       0.50480   0.35271   0.13982  -0.55193
O          O       0.17176   0.88250   0.80445  -0.55012
O          O       0.88277   0.93222   0.80932  -0.47485
O          O       0.94194   0.98394   0.87288  -0.50104
O          O       0.39820   0.46284   0.15856  -0.53428
O          O       0.06241   0.78774   0.80534  -0.54990
O          O       0.99557   0.85343   0.85993  -0.55007
O          O       0.32810   0.38402   0.19550  -0.55373
O          O       0.61713   0.43137   0.19087  -0.47400
O          O       0.55849   0.48240   0.12671  -0.50352
O          O       0.47671   0.41588   0.24893  -0.87212
O          O       0.02171   0.91494   0.75021  -0.87261
O          O       0.89825   0.03854   0.15793  -0.53421
O          O       0.56274   0.71153   0.80447  -0.55326
O          O       0.49594   0.64714   0.85982  -0.55090
O          O       0.82829   0.11708   0.19550  -0.55008
O          O       0.11708   0.06980   0.19061  -0.47254
O          O       0.05842   0.01697   0.12735  -0.49978
O          O       0.60179   0.53672   0.83968  -0.53419
O          O       0.93783   0.21226   0.19522  -0.55008
O          O       0.00409   0.14675   0.14018  -0.54933
O          O       0.67201   0.61627   0.80437  -0.55310
O          O       0.38261   0.57158   0.80921  -0.47127
O          O       0.44171   0.51666   0.87062  -0.50185
O          O       0.89806   0.03828   0.34156  -0.53516
O          O       0.56345   0.71146   0.69467  -0.55135
O          O       0.49537   0.64726   0.63998  -0.55189
O          O       0.82816   0.11736   0.30484  -0.54849
O          O       0.11697   0.06728   0.30914  -0.47479
O          O       0.05805   0.01603   0.37306  -0.50215
O          O       0.60175   0.53695   0.65850  -0.53355
O          O       0.93781   0.21208   0.30506  -0.54887
O          O       0.00436   0.14645   0.35984  -0.55085
O          O       0.67192   0.61604   0.69487  -0.55118
O          O       0.38293   0.56886   0.69083  -0.47414
O          O       0.44171   0.51746   0.62689  -0.50242
O          O       0.52312   0.58399   0.74920  -0.87310
O          O       0.97684   0.08288   0.25034  -0.87355

