data_crystal

_audit_creation_method 'AiiDA-DDEC plugin'

_cell_length_a        15.71578
_cell_length_b        15.74113
_cell_length_c        16.05722

_cell_angle_alpha     106.58084
_cell_angle_beta     112.92271
_cell_angle_gamma     108.17746

_symmetry_space_group_name_Hall 'P 1'
_symmetry_space_group_name_H-M  'P 1'

loop_
_symmetry_equiv_pos_as_xyz
 'x,y,z'

loop_
_atom_site_label
_atom_site_type_symbol
_atom_site_fract_x
_atom_site_fract_y
_atom_site_fract_z
_atom_site_charge
Ni         Ni      0.49655   0.99646  -0.00130   0.61642
Ni         Ni      0.49779   0.49811   0.50163   0.61628
Ni         Ni      0.50353   0.00292   0.49946   0.61926
Ni         Ni      0.00262   0.00353  -0.00012   0.61817
H          H       0.55009   0.98559   0.22551   0.11194
H          H       0.63105   0.92921   0.25192   0.09940
H          H       0.69513   0.99245   0.14178   0.05060
H          H       0.25138   0.85449   0.88762   0.08681
H          H       0.23071   0.76075   0.77693   0.08773
H          H       0.39501   0.76012   0.88531   0.10864
H          H       0.29937   0.72253   0.91925   0.07798
H          H       0.61799   0.79609   0.11287   0.13027
H          H       0.58919   0.83601   0.01687   0.14786
H          H       0.49871   0.71874   0.99338   0.13632
H          H       0.40512   0.81653   0.16071   0.12995
H          H       0.49111   0.76256   0.18013   0.12985
H          H       0.37678   0.70837   0.05859   0.13146
H          H       0.83458   0.15540   0.30045   0.12141
H          H       0.80380   0.05552   0.33190   0.12163
H          H       0.75306   0.14141   0.35226   0.14149
H          H       0.75962   0.11877   0.70669   0.11373
H          H       0.84460   0.21524   0.69907   0.10344
H          H       0.70049   0.11205   0.49881   0.06194
H          H       0.41367   0.07390   0.63513   0.08338
H          H       0.35177   0.13256   0.57111   0.08558
H          H       0.50776   0.21129   0.55732   0.10180
H          H       0.54065   0.25145   0.68623   0.06990
H          H       0.83578   0.34912   0.81209   0.13224
H          H       0.75999   0.25156   0.82824   0.13396
H          H       0.71253   0.33337   0.79458   0.12565
H          H       0.65942   0.22943   0.52559   0.14614
H          H       0.78684   0.32342   0.63177   0.13375
H          H       0.67434   0.33075   0.62355   0.12368
H          H       0.84670   0.03500   0.60374   0.13195
H          H       0.88810   0.14305   0.58418   0.12550
H          H       0.80050   0.02138   0.47814   0.12047
H          H       0.39281   0.89428   0.05383   0.25092
H          H       0.60664   0.12258   0.19381   0.24816
H          H       0.59424   0.12074   0.68295   0.24984
H          H       0.65885   0.96349   0.57266   0.24939
H          H       0.26009   0.32474   0.27469   0.11129
H          H       0.17681   0.37884   0.24790   0.09895
H          H       0.35065   0.55326   0.35856   0.05135
H          H       0.46705   0.36442   0.61245   0.08679
H          H       0.48398   0.45457   0.72309   0.08727
H          H       0.37478   0.51007   0.61480   0.10898
H          H       0.30303   0.38067   0.58074   0.07869
H          H       0.18237   0.50467   0.38682   0.13002
H          H       0.31865   0.57223   0.48294   0.14771
H          H       0.22475   0.50542   0.50641   0.13574
H          H       0.15534   0.24445   0.33903   0.12920
H          H       0.08162   0.31077   0.31942   0.12983
H          H       0.14897   0.31806   0.44092   0.13158
H          H       0.35506   0.53403   0.20005   0.12126
H          H       0.22341   0.47171   0.16849   0.12179
H          H       0.28908   0.40077   0.14805   0.14134
H          H       0.91168   0.05207   0.79305   0.11293
H          H       0.01594   0.14483   0.80091   0.10317
H          H       0.11283   0.20089   0.00112   0.06165
H          H       0.93902   0.77830   0.86465   0.08335
H          H       0.06218   0.78111   0.92917   0.08612
H          H       0.15445   0.95061   0.94298   0.10206
H          H       0.06598   0.85456   0.81415   0.06925
H          H       0.03780   0.02357   0.68847   0.13209
H          H       0.92347   0.93163   0.67159   0.13446
H          H       0.03910   0.91778   0.70556   0.12567
H          H       0.20414   0.13391   0.97466   0.14591
H          H       0.19196   0.15489   0.86862   0.13287
H          H       0.20761   0.05080   0.87679   0.12366
H          H       0.93072   0.24200   0.89607   0.13193
H          H       0.05891   0.30332   0.91645   0.12569
H          H       0.04260   0.32123   0.02201   0.12031
H          H       0.34037   0.33938   0.44612   0.25110
H          H       0.42897   0.41300   0.30656   0.24783
H          H       0.93778   0.91074   0.81683   0.24946
H          H       0.88987   0.08513   0.92655   0.24980
H          H       0.44303   0.00608   0.77124   0.11313
H          H       0.36297   0.06314   0.74398   0.09847
H          H       0.29990   0.00255   0.85677   0.04827
H          H       0.74136   0.13765   0.10879   0.08788
H          H       0.76269   0.23226   0.21950   0.08662
H          H       0.59936   0.23388   0.11131   0.10743
H          H       0.69466   0.26974   0.07663   0.08020
H          H       0.37763   0.19856   0.88359   0.12874
H          H       0.40504   0.15777   0.97904   0.14479
H          H       0.49688   0.27472   0.00341   0.13576
H          H       0.58939   0.17490   0.83555   0.13040
H          H       0.50352   0.22914   0.81532   0.12682
H          H       0.61787   0.28370   0.93696   0.13202
H          H       0.15801   0.83981   0.69910   0.11956
H          H       0.18871   0.93904   0.66672   0.12103
H          H       0.23775   0.85163   0.64533   0.14318
H          H       0.24347   0.88209   0.29429   0.11223
H          H       0.16269   0.78698   0.30663   0.10457
H          H       0.31062   0.89475   0.50538   0.06380
H          H       0.59291   0.93226   0.36489   0.08224
H          H       0.65491   0.87294   0.42821   0.08753
H          H       0.50020   0.79516   0.44341   0.10377
H          H       0.46646   0.75371   0.31430   0.06899
H          H       0.17095   0.65193   0.19457   0.13220
H          H       0.24165   0.74758   0.17317   0.13235
H          H       0.29341   0.66890   0.20877   0.12562
H          H       0.35347   0.77913   0.48010   0.14633
H          H       0.22559   0.68346   0.37663   0.13411
H          H       0.33754   0.67639   0.38267   0.12312
H          H       0.15820   0.96591   0.39917   0.13201
H          H       0.12248   0.86058   0.42382   0.12751
H          H       0.20950   0.98399   0.52671   0.12011
H          H       0.60075   0.09783   0.94329   0.25189
H          H       0.38620   0.87113   0.80270   0.25028
H          H       0.40958   0.88179   0.31496   0.24901
H          H       0.34538   0.03960   0.42618   0.24736
H          H       0.73558   0.67209   0.72901   0.11255
H          H       0.82004   0.61937   0.75636   0.09863
H          H       0.64615   0.44362   0.64349   0.04828
H          H       0.52905   0.63258   0.39172   0.08797
H          H       0.51302   0.54325   0.28102   0.08694
H          H       0.62316   0.48849   0.38896   0.10776
H          H       0.69377   0.61837   0.42397   0.08029
H          H       0.81574   0.49439   0.61671   0.12937
H          H       0.67914   0.42632   0.52117   0.14541
H          H       0.77201   0.49349   0.49691   0.13596
H          H       0.84051   0.75401   0.66500   0.13110
H          H       0.91504   0.68837   0.68522   0.12839
H          H       0.84794   0.68107   0.56367   0.13219
H          H       0.64096   0.46003   0.80114   0.11976
H          H       0.77286   0.52293   0.83355   0.12114
H          H       0.70688   0.59346   0.85479   0.14309
H          H       0.08703   0.94891   0.20506   0.11159
H          H       0.97934   0.85560   0.19236   0.10500
H          H       0.88877   0.80468   0.99373   0.06328
H          H       0.06637   0.22723   0.13452   0.08282
H          H       0.94325   0.22541   0.07083   0.08652
H          H       0.85032   0.05591   0.05569   0.10324
H          H       0.93801   0.15122   0.18472   0.06880
H          H       0.95565   0.97542   0.30393   0.13164
H          H       0.07308   0.06771   0.32588   0.13226
H          H       0.95846   0.08355   0.28998   0.12498
H          H       0.79749   0.87188   0.01863   0.14730
H          H       0.80537   0.84813   0.12218   0.13466
H          H       0.79207   0.95370   0.11576   0.12351
H          H       0.06679   0.75937   0.10038   0.13176
H          H       0.93632   0.69833   0.07499   0.12730
H          H       0.95750   0.68299   0.97259   0.11920
H          H       0.65511   0.65757   0.55736   0.25200
H          H       0.56868   0.58399   0.69729   0.25140
H          H       0.06573   0.09394   0.18423   0.24869
H          H       0.11332   0.91938   0.07376   0.24710
W          W       0.60365   0.85406   0.74971   0.68039
W          W       0.39773   0.14786   0.25005   0.57476
C          C       0.58483   0.90640   0.87652  -0.01215
C          C       0.54133   0.91669   0.65422  -0.02514
C          C       0.69591   0.01837   0.83629  -0.06628
C          C       0.43549   0.79029   0.69071  -0.06706
C          C       0.50454   0.84925   0.09705   0.34543
C          C       0.58919   0.95011   0.19535  -0.28860
C          C       0.67347   0.03015   0.19273   0.18912
C          C       0.29078   0.82422   0.85363  -0.06527
C          C       0.35343   0.78652   0.91879  -0.05452
C          C       0.55520   0.79732   0.05182  -0.46286
C          C       0.44054   0.78025   0.12593  -0.46867
C          C       0.77189   0.09965   0.30064  -0.44109
C          C       0.70160   0.21907   0.66873   0.35026
C          C       0.76165   0.15869   0.66061  -0.28763
C          C       0.72842   0.08387   0.55352   0.18566
C          C       0.40742   0.10245   0.57930  -0.06698
C          C       0.51480   0.18644   0.61583  -0.06271
C          C       0.75541   0.29250   0.78277  -0.47625
C          C       0.70487   0.27819   0.60818  -0.46055
C          C       0.82132   0.06972   0.55505  -0.43847
C          C       0.52951   0.70848   0.62308  -0.01369
C          C       0.76170   0.88680   0.84516  -0.02805
C          C       0.68184   0.86002   0.66354  -0.06648
C          C       0.59821   0.74482   0.80829  -0.06544
C          C       0.25177   0.40751   0.40286   0.34622
C          C       0.25448   0.39381   0.30466  -0.28549
C          C       0.33736   0.48071   0.30754   0.18604
C          C       0.47068   0.43772   0.64639  -0.06265
C          C       0.36762   0.43506   0.58122  -0.05622
C          C       0.24490   0.50327   0.44796  -0.46232
C          C       0.15366   0.31453   0.37370  -0.46816
C          C       0.29895   0.47117   0.19971  -0.44081
C          C       0.05042   0.03255   0.83133   0.34877
C          C       0.99781   0.10036   0.83926  -0.28523
C          C       0.02986   0.17408   0.94627   0.18614
C          C       0.02347   0.82820   0.92068  -0.06882
C          C       0.07101   0.89904   0.88432  -0.06175
C          C       0.01004   0.97242   0.71737  -0.47626
C          C       0.17028   0.09657   0.89209  -0.45884
C          C       0.01423   0.26539   0.94504  -0.43852
C          C       0.40317   0.08119   0.11893  -0.01541
C          C       0.47382   0.09587   0.34870  -0.01640
C          C       0.30491   0.98611   0.17770  -0.01740
C          C       0.56214   0.21859   0.29894  -0.02281
C          C       0.48961   0.14349   0.89916   0.34628
C          C       0.40437   0.04252   0.80112  -0.28669
C          C       0.31989   0.96370   0.80476   0.18701
C          C       0.70247   0.16868   0.14294  -0.06389
C          C       0.64027   0.20643   0.07760  -0.05519
C          C       0.43970   0.19646   0.94447  -0.46135
C          C       0.55398   0.21168   0.86989  -0.46717
C          C       0.22032   0.89457   0.69761  -0.44355
C          C       0.30597   0.78513   0.33442   0.35091
C          C       0.24481   0.84426   0.34253  -0.28719
C          C       0.28001   0.92093   0.44952   0.18620
C          C       0.59943   0.90322   0.42032  -0.07058
C          C       0.49230   0.81919   0.38427  -0.06227
C          C       0.24996   0.70901   0.22085  -0.47686
C          C       0.30666   0.72868   0.39784  -0.46063
C          C       0.18719   0.93403   0.44974  -0.43996
C          C       0.46220   0.28445   0.38122  -0.01378
C          C       0.24676   0.12505   0.15127  -0.01672
C          C       0.30808   0.12709   0.32219  -0.01939
C          C       0.41958   0.26320   0.20136  -0.02169
C          C       0.74508   0.59069   0.60117   0.34324
C          C       0.74215   0.60361   0.69917  -0.28464
C          C       0.65938   0.51567   0.69542   0.18742
C          C       0.52604   0.55966   0.35756  -0.06417
C          C       0.62937   0.56299   0.42288  -0.05503
C          C       0.75263   0.49546   0.55582  -0.46195
C          C       0.84291   0.68427   0.63066  -0.46830
C          C       0.69739   0.52362   0.80260  -0.44366
C          C       0.94944   0.97073   0.16448   0.34957
C          C       0.00084   0.90182   0.15662  -0.28723
C          C       0.97095   0.83021   0.04980   0.18618
C          C       0.98175   0.17813   0.07896  -0.06955
C          C       0.93364   0.10709   0.11486  -0.06290
C          C       0.98668   0.02822   0.27796  -0.47542
C          C       0.82937   0.90775   0.10087  -0.46273
C          C       0.98416   0.73746   0.04952  -0.43855
N          N       0.57682   0.94395   0.94627  -0.37660
N          N       0.50273   0.94433   0.59554  -0.37633
N          N       0.74499   0.10756   0.87608  -0.40297
N          N       0.34605   0.75352   0.66623  -0.38140
N          N       0.43272   0.87129   0.02275  -0.35115
N          N       0.62866   0.08733   0.14768  -0.33902
N          N       0.59020   0.14653   0.63029  -0.34943
N          N       0.63683   0.98744   0.51828  -0.33411
N          N       0.49762   0.63061   0.55366  -0.37486
N          N       0.84802   0.90652   0.90375  -0.37412
N          N       0.73143   0.86967   0.62393  -0.40253
N          N       0.58535   0.67972   0.83234  -0.38233
N          N       0.34835   0.41026   0.47726  -0.35125
N          N       0.43979   0.48109   0.35267  -0.33845
N          N       0.01630   0.95959   0.86956  -0.35022
N          N       0.96830   0.11759   0.98111  -0.33536
N          N       0.41233   0.04767   0.04902  -0.37559
N          N       0.50721   0.06215   0.40278  -0.38239
N          N       0.25567   0.89719   0.13678  -0.39432
N          N       0.65154   0.25651   0.32427  -0.37530
N          N       0.56071   0.12134   0.97392  -0.35077
N          N       0.36431   0.90602   0.84929  -0.33637
N          N       0.41611   0.85826   0.36952  -0.35214
N          N       0.36993   0.01748   0.48169  -0.33883
N          N       0.49867   0.36356   0.45109  -0.37677
N          N       0.15881   0.10419   0.09701  -0.38135
N          N       0.25992   0.11850   0.36300  -0.39324
N          N       0.43224   0.32725   0.17623  -0.37651
N          N       0.64797   0.58699   0.52651  -0.35112
N          N       0.55700   0.51550   0.65080  -0.33987
N          N       0.98753   0.04580   0.12964  -0.34890
N          N       0.03560   0.88826   0.01803  -0.33714

