data_crystal

_audit_creation_method 'AiiDA-DDEC plugin'

_cell_length_a        10.94231
_cell_length_b        22.07149
_cell_length_c        28.50529

_cell_angle_alpha     101.16882
_cell_angle_beta     99.70076
_cell_angle_gamma     100.64252

_symmetry_space_group_name_Hall 'P 1'
_symmetry_space_group_name_H-M  'P 1'

loop_
_symmetry_equiv_pos_as_xyz
 'x,y,z'

loop_
_atom_site_label
_atom_site_type_symbol
_atom_site_fract_x
_atom_site_fract_y
_atom_site_fract_z
_atom_site_charge
Ni         Ni      0.39578   0.89274   0.18878   0.92185
Ni         Ni      0.30503   0.02264   0.16311   0.92514
Ni         Ni      0.34136   0.20094   0.51746   0.92360
Ni         Ni      0.25699   0.33460   0.49874   0.92426
Ni         Ni      0.20353   0.64402   0.83471   0.92248
Ni         Ni      0.28586   0.51010   0.85580   0.82995
Ni         Ni      0.60422   0.10727   0.81122   0.92180
Ni         Ni      0.69497   0.97737   0.83689   0.92524
Ni         Ni      0.65864   0.79907   0.48254   0.92353
Ni         Ni      0.74301   0.66540   0.50126   0.92421
Ni         Ni      0.79648   0.35599   0.16529   0.92234
Ni         Ni      0.71414   0.48991   0.14420   0.82983
H          H       0.92574   0.97619   0.19711   0.13410
H          H       0.05461   0.80240   0.18963   0.10660
H          H       0.66027   0.80242   0.18761   0.11295
H          H       0.90222   0.59821   0.22169   0.11037
H          H       0.96723   0.71714   0.23910   0.12959
H          H       0.66405   0.70981   0.11845   0.12815
H          H       0.61469   0.59124   0.10572   0.08808
H          H       0.45719   0.58298   0.15647   0.11307
H          H       0.07135   0.58609   0.16946   0.10914
H          H       0.18878   0.40914   0.14338   0.12509
H          H       0.45369   0.78299   0.12820   0.10680
H          H       0.41019   0.66483   0.11524   0.12067
H          H       0.19467   0.68228   0.22890   0.12749
H          H       0.24673   0.79968   0.23663   0.10345
H          H       0.35567   0.79407   0.03325   0.12255
H          H       0.10456   0.79052   0.89944   0.11364
H          H       0.15072   0.94191   0.02623   0.10935
H          H       0.72422   0.84716   0.85270   0.10630
H          H       0.88549   0.80219   0.89985   0.12731
H          H       0.11318   0.99281   0.95546   0.13471
H          H       0.94374   0.02939   0.90535   0.10227
H          H       0.21061   0.16917   0.22405   0.10908
H          H       0.14634   0.27117   0.35939   0.10877
H          H       0.38742   0.13791   0.36056   0.12799
H          H       0.02979   0.31038   0.15605   0.10508
H          H       0.18203   0.25932   0.20131   0.12683
H          H       0.95317   0.26228   0.31098   0.13308
H          H       0.81295   0.31442   0.26153   0.10451
H          H       0.60959   0.11058   0.52561   0.11384
H          H       0.99479   0.10949   0.51057   0.10746
H          H       0.86918   0.28448   0.53190   0.12585
H          H       0.59754   0.90881   0.54592   0.10987
H          H       0.64669   0.02706   0.56217   0.13418
H          H       0.87908   0.01288   0.45378   0.13258
H          H       0.81946   0.89548   0.44213   0.10197
H          H       0.34554   0.45201   0.69682   0.13343
H          H       0.10564   0.58540   0.69500   0.10629
H          H       0.17046   0.48297   0.55977   0.11244
H          H       0.76644   0.62490   0.59804   0.10372
H          H       0.91164   0.57553   0.64757   0.12878
H          H       0.13158   0.56947   0.53480   0.13705
H          H       0.97585   0.61861   0.48996   0.10709
H          H       0.08499   0.45423   0.90694   0.08943
H          H       0.06022   0.44975   0.99219   0.12434
H          H       0.24260   0.50739   0.06249   0.10294
H          H       0.44193   0.56524   0.04388   0.11425
H          H       0.44985   0.56520   0.95628   0.10478
H          H       0.54590   0.99636   0.19942   0.39264
H          H       0.44930   0.01920   0.23826   0.38359
H          H       0.49364   0.30492   0.53726   0.39061
H          H       0.39470   0.32686   0.57426   0.38533
H          H       0.35416   0.64273   0.91115   0.38347
H          H       0.44068   0.61594   0.87042   0.38915
H          H       0.07426   0.02382   0.80289   0.13368
H          H       0.94539   0.19761   0.81037   0.10674
H          H       0.33973   0.19758   0.81239   0.11307
H          H       0.09778   0.40180   0.77831   0.11060
H          H       0.03278   0.28287   0.76090   0.12949
H          H       0.33595   0.29020   0.88155   0.12781
H          H       0.38531   0.40877   0.89428   0.08821
H          H       0.54281   0.41703   0.84352   0.11291
H          H       0.92865   0.41391   0.83053   0.10894
H          H       0.81122   0.59086   0.85662   0.12525
H          H       0.54631   0.21701   0.87180   0.10651
H          H       0.58981   0.33518   0.88476   0.12077
H          H       0.80533   0.31773   0.77110   0.12778
H          H       0.75327   0.20033   0.76337   0.10341
H          H       0.64433   0.20593   0.96675   0.12275
H          H       0.89544   0.20948   0.10056   0.11363
H          H       0.84928   0.05810   0.97377   0.10915
H          H       0.27578   0.15285   0.14730   0.10644
H          H       0.11451   0.19782   0.10015   0.12775
H          H       0.88682   0.00719   0.04454   0.13459
H          H       0.05626   0.97062   0.09465   0.10207
H          H       0.78939   0.83084   0.77595   0.10902
H          H       0.85366   0.72884   0.64061   0.10872
H          H       0.61258   0.86210   0.63944   0.12815
H          H       0.97021   0.68962   0.84395   0.10485
H          H       0.81797   0.74068   0.79869   0.12677
H          H       0.04683   0.73773   0.68902   0.13342
H          H       0.18705   0.68559   0.73847   0.10446
H          H       0.39041   0.88943   0.47439   0.11407
H          H       0.00521   0.89051   0.48943   0.10802
H          H       0.13082   0.71553   0.46810   0.12589
H          H       0.40246   0.09119   0.45408   0.11014
H          H       0.35331   0.97295   0.43783   0.13417
H          H       0.12092   0.98712   0.54622   0.13236
H          H       0.18055   0.10453   0.55787   0.10195
H          H       0.65446   0.54800   0.30318   0.13358
H          H       0.89437   0.41461   0.30500   0.10613
H          H       0.82954   0.51703   0.44023   0.11237
H          H       0.23356   0.37511   0.40196   0.10368
H          H       0.08836   0.42448   0.35243   0.12901
H          H       0.86842   0.43054   0.46520   0.13705
H          H       0.02416   0.38139   0.51004   0.10683
H          H       0.91501   0.54578   0.09306   0.08944
H          H       0.93978   0.55026   0.00781   0.12460
H          H       0.75740   0.49262   0.93751   0.10308
H          H       0.55807   0.43477   0.95612   0.11415
H          H       0.55015   0.43481   0.04372   0.10442
H          H       0.45411   0.00365   0.80058   0.39253
H          H       0.55070   0.98081   0.76174   0.38369
H          H       0.50636   0.69509   0.46274   0.39057
H          H       0.60530   0.67314   0.42574   0.38534
H          H       0.64584   0.35728   0.08885   0.38350
H          H       0.55932   0.38407   0.12957   0.38901
C          C       0.78214   0.89273   0.19350  -0.02266
C          C       0.90582   0.92549   0.19513  -0.10100
C          C       0.00394   0.89253   0.19457  -0.03541
C          C       0.97758   0.82698   0.19127  -0.13256
C          C       0.85327   0.79340   0.18727   0.04308
C          C       0.75680   0.82693   0.18881  -0.13363
C          C       0.67219   0.92457   0.19685   0.57749
C          C       0.13749   0.92422   0.19425   0.59855
C          C       0.85385   0.62523   0.19956   0.09923
C          C       0.88926   0.69108   0.20875  -0.18898
C          C       0.82145   0.72366   0.17973   0.12563
C          C       0.71918   0.68703   0.14228  -0.19160
C          C       0.69161   0.62147   0.13475   0.07900
C          C       0.33300   0.49274   0.14855  -0.02251
C          C       0.36103   0.55898   0.15633  -0.13207
C          C       0.26852   0.59367   0.16428   0.04771
C          C       0.14623   0.56081   0.16430  -0.14399
C          C       0.11652   0.49462   0.15667  -0.02857
C          C       0.21064   0.46050   0.14924  -0.10267
C          C       0.39830   0.75839   0.14996   0.09910
C          C       0.37378   0.69290   0.14319  -0.18627
C          C       0.29836   0.66324   0.17122   0.11915
C          C       0.25167   0.70250   0.20555  -0.18425
C          C       0.28106   0.76776   0.21042   0.08846
C          C       0.43689   0.45918   0.13780   0.57531
C          C       0.98230   0.46306   0.15649   0.57720
C          C       0.25865   0.87147   0.03493  -0.03088
C          C       0.28925   0.81526   0.01256  -0.10147
C          C       0.23483   0.78693   0.96320  -0.02814
C          C       0.14509   0.81324   0.93765  -0.12510
C          C       0.11185   0.86847   0.95968   0.04405
C          C       0.17236   0.89835   0.00811  -0.13382
C          C       0.81179   0.87748   0.87607   0.08492
C          C       0.90255   0.85291   0.90204  -0.18805
C          C       0.01421   0.89374   0.93193   0.12242
C          C       0.02806   0.95876   0.93366  -0.18378
C          C       0.93404   0.97963   0.90599   0.10212
C          C       0.31026   0.90360   0.08803   0.59662
C          C       0.26851   0.72918   0.93477   0.58439
C          C       0.30615   0.15010   0.28942  -0.02536
C          C       0.22722   0.18131   0.26369  -0.12281
C          C       0.16677   0.22457   0.28796   0.04732
C          C       0.18971   0.23724   0.33905  -0.13191
C          C       0.27020   0.20733   0.36551  -0.03036
C          C       0.32703   0.16260   0.34063  -0.09404
C          C       0.01667   0.29820   0.19032   0.09233
C          C       0.10017   0.26951   0.21569  -0.18305
C          C       0.08058   0.25558   0.26030   0.11773
C          C       0.97493   0.27233   0.27704  -0.18701
C          C       0.89549   0.30095   0.24956   0.08752
C          C       0.36069   0.10176   0.25984   0.57952
C          C       0.29098   0.22593   0.42029   0.60060
C          C       0.72919   0.20053   0.52967  -0.02754
C          C       0.70493   0.13475   0.52486  -0.13201
C          C       0.79846   0.10062   0.51718   0.04472
C          C       0.91941   0.13418   0.51611  -0.13172
C          C       0.94690   0.20030   0.52253  -0.03502
C          C       0.85059   0.23347   0.52838  -0.09472
C          C       0.65833   0.93405   0.52610   0.09864
C          C       0.68630  -0.00015   0.53482  -0.18550
C          C       0.76796   0.03081   0.50933   0.11542
C          C       0.81716   0.99218   0.47541  -0.18866
C          C       0.78379   0.92663   0.46840   0.08543
C          C       0.61928   0.23223   0.53378   0.57578
C          C       0.08005   0.23238   0.52142   0.60479
C          C       0.26370   0.46348   0.62536  -0.02818
C          C       0.28578   0.47673   0.67660  -0.09758
C          C       0.23053   0.52223   0.70142  -0.02915
C          C       0.14886   0.55138   0.67474  -0.13399
C          C       0.12449   0.53802   0.62353   0.04274
C          C       0.18555   0.49491   0.59941  -0.13001
C          C       0.84854   0.61174   0.58547   0.07954
C          C       0.93079   0.58450   0.61302  -0.18548
C          C       0.03576   0.56773   0.59564   0.11666
C          C       0.05118   0.58002   0.55012  -0.18544
C          C       0.96507   0.60756   0.52479   0.09702
C          C       0.31418   0.41319   0.59587   0.57689
C          C       0.25400   0.54134   0.75642   0.59856
C          C       0.16082   0.47845   0.93854   0.08179
C          C       0.14791   0.47631   0.98601  -0.13767
C          C       0.24918   0.50823   0.02495  -0.03141
C          C       0.35988   0.54082   0.01472  -0.13067
C          C       0.36550   0.54104   0.96628   0.09503
C          C       0.21786   0.10727   0.80649  -0.02305
C          C       0.09418   0.07452   0.80486  -0.10090
C          C       0.99606   0.10748   0.80543  -0.03562
C          C       0.02242   0.17303   0.80873  -0.13228
C          C       0.14673   0.20661   0.81273   0.04282
C          C       0.24321   0.17308   0.81119  -0.13317
C          C       0.32781   0.07544   0.80315   0.57765
C          C       0.86251   0.07579   0.80575   0.59859
C          C       0.14615   0.37477   0.80044   0.09925
C          C       0.11074   0.30892   0.79125  -0.18890
C          C       0.17855   0.27634   0.82027   0.12568
C          C       0.28083   0.31298   0.85772  -0.19170
C          C       0.30839   0.37853   0.86524   0.07883
C          C       0.66700   0.50726   0.85145  -0.02249
C          C       0.63898   0.44103   0.84367  -0.13215
C          C       0.73148   0.40633   0.83572   0.04750
C          C       0.85377   0.43920   0.83569  -0.14389
C          C       0.88348   0.50539   0.84333  -0.02856
C          C       0.78936   0.53950   0.85076  -0.10217
C          C       0.60170   0.24162   0.85004   0.09923
C          C       0.62622   0.30710   0.85681  -0.18634
C          C       0.70164   0.33677   0.82878   0.11922
C          C       0.74833   0.29751   0.79445  -0.18411
C          C       0.71895   0.23224   0.78958   0.08843
C          C       0.56311   0.54083   0.86220   0.57512
C          C       0.01770   0.53695   0.84351   0.57688
C          C       0.74136   0.12854   0.96507  -0.03081
C          C       0.71076   0.18475   0.98743  -0.10136
C          C       0.76517   0.21307   0.03680  -0.02793
C          C       0.85491   0.18677   0.06234  -0.12532
C          C       0.88815   0.13154   0.04032   0.04428
C          C       0.82764   0.10165   0.99189  -0.13415
C          C       0.18822   0.12253   0.12392   0.08492
C          C       0.09745   0.14710   0.09796  -0.18789
C          C       0.98580   0.10627   0.06806   0.12242
C          C       0.97194   0.04125   0.06634  -0.18396
C          C       0.06596   0.02038   0.09401   0.10177
C          C       0.68974   0.09641   0.91197   0.59667
C          C       0.73149   0.27083   0.06523   0.58423
C          C       0.69385   0.84990   0.71058  -0.02524
C          C       0.77279   0.81869   0.73630  -0.12280
C          C       0.83323   0.77544   0.71204   0.04733
C          C       0.81029   0.76277   0.66095  -0.13213
C          C       0.72980   0.79267   0.63449  -0.03034
C          C       0.67297   0.83740   0.65937  -0.09389
C          C       0.98333   0.70180   0.80967   0.09227
C          C       0.89983   0.73050   0.78431  -0.18300
C          C       0.91942   0.74443   0.73970   0.11775
C          C       0.02508   0.72767   0.72296  -0.18698
C          C       0.10451   0.69905   0.75043   0.08771
C          C       0.63931   0.89825   0.74015   0.57937
C          C       0.70902   0.77408   0.57970   0.60063
C          C       0.27081   0.79948   0.47033  -0.02766
C          C       0.29507   0.86526   0.47514  -0.13195
C          C       0.20154   0.89939   0.48282   0.04501
C          C       0.08059   0.86583   0.48388  -0.13225
C          C       0.05310   0.79970   0.47747  -0.03524
C          C       0.14941   0.76653   0.47162  -0.09531
C          C       0.34167   0.06596   0.47389   0.09851
C          C       0.31370   0.00016   0.46518  -0.18547
C          C       0.23205   0.96920   0.49067   0.11533
C          C       0.18284   0.00783   0.52459  -0.18867
C          C       0.21621   0.07338   0.53160   0.08528
C          C       0.38072   0.76778   0.46622   0.57623
C          C       0.91996   0.76763   0.47858   0.60490
C          C       0.73630   0.53653   0.37463  -0.02822
C          C       0.71422   0.52328   0.32339  -0.09728
C          C       0.76948   0.47778   0.29858  -0.02912
C          C       0.85115   0.44863   0.32526  -0.13409
C          C       0.87552   0.46199   0.37647   0.04265
C          C       0.81445   0.50510   0.40059  -0.13011
C          C       0.15147   0.38827   0.41453   0.07956
C          C       0.06921   0.41551   0.38698  -0.18529
C          C       0.96424   0.43228   0.40436   0.11682
C          C       0.94883   0.41999   0.44988  -0.18556
C          C       0.03494   0.39244   0.47521   0.09696
C          C       0.68582   0.58682   0.40413   0.57667
C          C       0.74602   0.45867   0.24357   0.59860
C          C       0.83919   0.52156   0.06146   0.08211
C          C       0.85209   0.52370   0.01399  -0.13776
C          C       0.75082   0.49177   0.97505  -0.03123
C          C       0.64012   0.45919   0.98528  -0.13068
C          C       0.63450   0.45897   0.03371   0.09504
N          N       0.75772   0.59063   0.16261  -0.21593
N          N       0.35262   0.79556   0.18297  -0.22097
N          N       0.82647   0.93998   0.87782  -0.23077
N          N       0.91560   0.31410   0.20683  -0.22870
N          N       0.70623   0.89752   0.49341  -0.22943
N          N       0.86487   0.62359   0.54198  -0.22796
N          N       0.26749   0.51040   0.92867  -0.23647
N          N       0.24228   0.40938   0.83739  -0.21547
N          N       0.64739   0.20445   0.81703  -0.22139
N          N       0.17353   0.06003   0.12218  -0.23081
N          N       0.08440   0.68590   0.79317  -0.22903
N          N       0.29377   0.10248   0.50659  -0.22895
N          N       0.13513   0.37642   0.45802  -0.22822
N          N       0.73252   0.48960   0.07133  -0.23668
O          O       0.57440   0.88748   0.20388  -0.59885
O          O       0.67886   0.98089   0.19267  -0.51572
O          O       0.15670   0.98016   0.18727  -0.53642
O          O       0.21968   0.89060   0.19934  -0.59153
O          O       0.52729   0.49387   0.12465  -0.59427
O          O       0.43018   0.40256   0.14117  -0.52800
O          O       0.95147   0.40266   0.14612  -0.54012
O          O       0.90941   0.50005   0.16676  -0.57534
O          O       0.28588   0.95782   0.10157  -0.58770
O          O       0.36965   0.87399   0.11509  -0.54461
O          O       0.33346   0.69661   0.95585  -0.54557
O          O       0.22446   0.71898   0.88838  -0.59237
O          O       0.34600   0.10265   0.21400  -0.59683
O          O       0.41279   0.06381   0.27970  -0.51637
O          O       0.33924   0.19091   0.44534  -0.53630
O          O       0.25539   0.27623   0.43685  -0.59166
O          O       0.51837   0.19418   0.53757  -0.59759
O          O       0.62931   0.28977   0.53249  -0.52224
O          O       0.15925   0.19670   0.52074  -0.59359
O          O       0.10318   0.29089   0.52058  -0.54293
O          O       0.29718   0.41292   0.54986  -0.59418
O          O       0.36397   0.37465   0.61576  -0.51744
O          O       0.29805   0.50543   0.78123  -0.53113
O          O       0.22436   0.59381   0.77279  -0.59747
O          O       0.45279   0.99261   0.20399  -0.79466
O          O       0.39944   0.30040   0.54016  -0.79519
O          O       0.35080   0.61517   0.87728  -0.78658
O          O       0.42560   0.11252   0.79612  -0.59838
O          O       0.32114   0.01912   0.80733  -0.51640
O          O       0.84330   0.01984   0.81273  -0.53678
O          O       0.78033   0.10941   0.80065  -0.59115
O          O       0.47271   0.50614   0.87535  -0.59476
O          O       0.56983   0.59745   0.85883  -0.52728
O          O       0.04853   0.59735   0.85387  -0.53967
O          O       0.09060   0.49995   0.83324  -0.57555
O          O       0.71413   0.04219   0.89843  -0.58821
O          O       0.63035   0.12602   0.88491  -0.54422
O          O       0.66654   0.30339   0.04415  -0.54508
O          O       0.77554   0.28103   0.11162  -0.59274
O          O       0.65401   0.89735   0.78600  -0.59730
O          O       0.58722   0.93619   0.72030  -0.51589
O          O       0.66076   0.80910   0.55465  -0.53583
O          O       0.74461   0.72377   0.56315  -0.59207
O          O       0.48163   0.80583   0.46243  -0.59714
O          O       0.37069   0.71024   0.46750  -0.52314
O          O       0.84076   0.80331   0.47926  -0.59313
O          O       0.89682   0.70912   0.47942  -0.54341
O          O       0.70282   0.58709   0.45013  -0.59462
O          O       0.63603   0.62536   0.38424  -0.51675
O          O       0.70195   0.49457   0.21877  -0.53063
O          O       0.77569   0.40620   0.22721  -0.59791
O          O       0.54722   0.00739   0.79601  -0.79474
O          O       0.60056   0.69961   0.45984  -0.79517
O          O       0.64920   0.38484   0.12272  -0.78646

