data_crystal

_audit_creation_method 'AiiDA-DDEC plugin'

_cell_length_a        10.37858
_cell_length_b        30.76348
_cell_length_c        31.24820

_cell_angle_alpha     90.00000
_cell_angle_beta     90.00000
_cell_angle_gamma     91.29964

_symmetry_space_group_name_Hall 'P 1'
_symmetry_space_group_name_H-M  'P 1'

loop_
_symmetry_equiv_pos_as_xyz
 'x,y,z'

loop_
_atom_site_label
_atom_site_type_symbol
_atom_site_fract_x
_atom_site_fract_y
_atom_site_fract_z
_atom_site_charge
Zn         Zn      0.17112   0.32159   0.32540   1.00038
Zn         Zn      0.47813   0.16322   0.91869   0.98006
Zn         Zn      0.47106   0.08940   0.84295   0.97285
Zn         Zn      0.97813   0.66322   0.58131   0.98008
Zn         Zn      0.12692   0.68129   0.66598   0.98633
Zn         Zn      0.37309   0.81872   0.16598   0.98634
Zn         Zn      0.52894   0.91060   0.15705   0.97286
Zn         Zn      0.02894   0.41060   0.34295   0.97291
Zn         Zn      0.62691   0.18129   0.83402   0.98619
Zn         Zn      0.32888   0.17841   0.82541   1.00039
Zn         Zn      0.52188   0.83679   0.08131   0.97997
Zn         Zn      0.82889   0.67842   0.67460   1.00036
Zn         Zn      0.87309   0.31871   0.33402   0.98628
Zn         Zn      0.67112   0.82159   0.17460   1.00034
Zn         Zn      0.97107   0.58940   0.65705   0.97296
Zn         Zn      0.02187   0.33679   0.41869   0.98002
H          H       0.99506   0.42222   0.52163   0.12242
H          H       0.02793   0.87858   0.18319   0.13974
H          H       0.72544   0.27751   0.50185   0.15512
H          H       0.72882   0.68846   0.22503   0.12763
H          H       0.22881   0.18846   0.27497   0.12751
H          H       0.37553   0.22493   0.61324   0.10143
H          H       0.49506   0.92222   0.97837   0.12233
H          H       0.32637   0.49324   0.27853   0.15053
H          H       0.68754   0.61413   0.25204   0.10116
H          H       0.27456   0.72249   0.49815   0.15501
H          H       0.82637   0.99324   0.22147   0.15055
H          H       0.19271   0.21883   0.00207   0.14012
H          H       0.65026   0.80658   0.31445   0.12934
H          H       0.86530   0.94442   0.76610   0.27726
H          H       0.74472   0.49448   0.28492   0.13977
H          H       0.14649   0.81021   0.66777   0.13458
H          H       0.69271   0.71883   0.49793   0.14031
H          H       0.30729   0.28117   0.50207   0.14014
H          H       0.67364   0.50677   0.72147   0.15055
H          H       0.52792   0.37857   0.31681   0.13979
H          H       0.51865   0.30810   0.38658   0.14431
H          H       0.85351   0.18979   0.33223   0.13452
H          H       0.50494   0.07779   0.02163   0.12248
H          H       0.34975   0.19342   0.68555   0.12922
H          H       0.17363   0.00677   0.77853   0.15053
H          H       0.15025   0.30658   0.18555   0.12923
H          H       0.64649   0.31021   0.83223   0.13451
H          H       0.81247   0.88588   0.75204   0.10104
H          H       0.47208   0.62143   0.68319   0.13990
H          H       0.76237   0.26785   0.21729   0.12881
H          H       0.41907   0.25653   0.56084   0.27723
H          H       0.52170   0.01889   0.07709   0.11993
H          H       0.80731   0.78117   0.99793   0.13999
H          H       0.23763   0.73215   0.78271   0.12888
H          H       0.58093   0.74347   0.43916   0.27739
H          H       0.48135   0.69190   0.61342   0.14427
H          H       0.30870   0.61387   0.19499   0.12408
H          H       0.47830   0.98111   0.92291   0.11988
H          H       0.25529   0.50552   0.71508   0.13961
H          H       0.63471   0.55558   0.26610   0.27759
H          H       0.22545   0.77751   0.99815   0.15521
H          H       0.00494   0.57779   0.47837   0.12262
H          H       0.19131   0.88613   0.69499   0.12427
H          H       0.84975   0.69342   0.81445   0.12911
H          H       0.77456   0.22249   0.00185   0.15518
H          H       0.01867   0.80810   0.11342   0.14443
H          H       0.35352   0.68979   0.16777   0.13440
H          H       0.62447   0.77507   0.38676   0.10156
H          H       0.91908   0.75653   0.93916   0.27717
H          H       0.26633   0.76446   0.85610   0.12266
H          H       0.24472   0.99448   0.21508   0.13987
H          H       0.97208   0.12143   0.81681   0.13987
H          H       0.02170   0.51889   0.42291   0.11994
H          H       0.98135   0.19190   0.88658   0.14427
H          H       0.75528   0.00552   0.78492   0.13972
H          H       0.73367   0.23555   0.14390   0.12254
H          H       0.73763   0.23215   0.71729   0.12883
H          H       0.27119   0.31154   0.77497   0.12739
H          H       0.69130   0.38613   0.80501   0.12415
H          H       0.76633   0.26445   0.64390   0.12263
H          H       0.12447   0.27507   0.11324   0.10145
H          H       0.87554   0.72493   0.88676   0.10133
H          H       0.36529   0.44442   0.73390   0.27738
H          H       0.13471   0.05558   0.23390   0.27747
H          H       0.77119   0.81154   0.72503   0.12729
H          H       0.18753   0.11413   0.24796   0.10103
H          H       0.31247   0.38588   0.74796   0.10117
H          H       0.26238   0.76786   0.28271   0.12877
H          H       0.08093   0.24347   0.06084   0.27738
H          H       0.80870   0.11387   0.30501   0.12412
H          H       0.23368   0.73555   0.35610   0.12247
H          H       0.97830   0.48111   0.57709   0.11993
C          C       0.07502   0.82758   0.68614  -0.08560
C          C       0.95622   0.80664   0.69476  -0.01141
C          C       0.72245   0.69479   0.58112   0.59095
C          C       0.36590   0.70728   0.55813  -0.01677
C          C       0.22244   0.19479   0.91888   0.59100
C          C       0.63746   0.67175   0.21849  -0.09089
C          C       0.41411   0.43352   0.29836  -0.01641
C          C       0.45621   0.30664   0.80524  -0.01146
C          C       0.04334   0.27294   0.13535  -0.12490
C          C       0.94066   0.70893   0.82394  -0.08745
C          C       0.96426   0.00144   0.77831   0.24885
C          C       0.08427   0.02334   0.78446  -0.15923
C          C       0.98360   0.22342   0.00703   0.24945
C          C       0.85149   0.06538   0.80243  -0.01491
C          C       0.43446   0.26080   0.82047   0.56777
C          C       0.32410   0.75116   0.34648  -0.09430
C          C       0.02974   0.91229   0.19358  -0.08094
C          C       0.53088   0.19063   0.74927   0.57314
C          C       0.24256   0.70073   0.58265   0.59402
C          C       0.16014   0.73089   0.80609  -0.08645
C          C       0.50656   0.39143   0.77502  -0.04355
C          C       0.86589   0.20728   0.94187  -0.01672
C          C       0.38746   0.37034   0.76651  -0.12461
C          C       0.57532   0.24666   0.62340  -0.04693
C          C       0.01773   0.79924   0.07975  -0.08459
C          C       0.17591   0.74885   0.84648  -0.09433
C          C       0.07533   0.74666   0.87660  -0.04678
C          C       0.50942   0.96720   0.03082  -0.03349
C          C       0.13412   0.79273   0.05813  -0.01677
C          C       0.98116   0.56799   0.56368   0.59651
C          C       0.10078   0.21629   0.98532  -0.19022
C          C       0.86255   0.82825   0.71849  -0.09103
C          C       0.51772   0.29924   0.42025  -0.08454
C          C       0.95691   0.28979   0.20534  -0.01135
C          C       0.54309   0.21021   0.70534  -0.01140
C          C       0.47027   0.58772   0.69358  -0.08074
C          C       0.57502   0.32758   0.81386  -0.08558
C          C       0.14851   0.93463   0.19757  -0.01478
C          C       0.51214   0.01105   0.04331  -0.09789
C          C       0.83986   0.26911   0.19391  -0.08662
C          C       0.98786   0.48895   0.54331  -0.09809
C          C       0.01885   0.43201   0.43632   0.59669
C          C       0.99345   0.10857   0.27502  -0.04363
C          C       0.42499   0.67243   0.18614  -0.08531
C          C       0.59973   0.36943   0.79890  -0.09379
C          C       0.35150   0.56538   0.69757  -0.01494
C          C       0.90023   0.79541   0.05773  -0.01596
C          C       0.61255   0.62966   0.23349  -0.12456
C          C       0.91412   0.93353   0.20164  -0.01614
C          C       0.25746   0.79927   0.08264   0.59384
C          C       0.96912   0.30937   0.24927   0.57310
C          C       0.33987   0.76911   0.30609  -0.08656
C          C       0.77756   0.80522   0.08112   0.59110
C          C       0.45481   0.56372   0.23918   0.46180
C          C       0.95666   0.72706   0.86465  -0.12502
C          C       0.89101   0.23587   0.08008   0.46079
C          C       0.59978   0.70460   0.55773  -0.01622
C          C       0.27756   0.30522   0.41888   0.59095
C          C       0.51640   0.27658   0.50703   0.24938
C          C       0.63502   0.28180   0.48517  -0.16709
C          C       0.71015   0.59120   0.69307   0.59970
C          C       0.51885   0.93201   0.06368   0.59659
C          C       0.08588   0.06648   0.79836  -0.01617
C          C       0.40022   0.29541   0.44227  -0.01613
C          C       0.93446   0.76080   0.67953   0.56780
C          C       0.15181   0.97764   0.21150  -0.18729
C          C       0.05934   0.29107   0.17606  -0.08727
C          C       0.03574   0.99856   0.22169   0.24872
C          C       0.36499   0.71820   0.51483  -0.16704
C          C       0.52973   0.41228   0.30642  -0.08087
C          C       0.74255   0.20073   0.91735   0.59392
C          C       0.01641   0.77658   0.99297   0.24958
C          C       0.76927   0.41137   0.31450   0.58716
C          C       0.58589   0.56648   0.70164  -0.01637
C          C       0.86498   0.21820   0.98517  -0.16718
C          C       0.75745   0.29927   0.41735   0.59387
C          C       0.89923   0.78371   0.01468  -0.19034
C          C       0.45691   0.78979   0.29466  -0.01149
C          C       0.21015   0.09120   0.80693   0.59966
C          C       0.48115   0.06799   0.93632   0.59650
C          C       0.88746   0.87034   0.73349  -0.12444
C          C       0.00656   0.89143   0.72498  -0.04373
C          C      -0.00274   0.45635   0.51265  -0.09870
C          C       0.39922   0.28371   0.48532  -0.19021
C          C       0.90027   0.13058   0.29890  -0.09393
C          C       0.49345   0.60858   0.22498  -0.04356
C          C       0.04379   0.19336   0.30524  -0.01144
C          C       0.95480   0.06372   0.26082   0.46163
C          C       0.92498   0.17243   0.31386  -0.08542
C          C       0.26928   0.91137   0.18550   0.58711
C          C       0.48229   0.70076   0.57975  -0.08439
C          C       0.63411   0.29273   0.44187  -0.01672
C          C       0.65180   0.47764   0.28850  -0.18726
C          C       0.44066   0.20893   0.67606  -0.08739
C          C       0.06554   0.23920   0.32047   0.56766
C          C       0.60900   0.26413   0.58008   0.46042
C          C       0.54380   0.69336   0.19476  -0.01151
C          C       0.09974   0.86943   0.70110  -0.09370
C          C       0.03089   0.69063   0.75073   0.57331
C          C       0.97027   0.08772   0.80642  -0.08074
C          C       0.48786   0.98895   0.95669  -0.09813
C          C       0.23073   0.58863   0.68550   0.58720
C          C       0.67590   0.24885   0.65352  -0.09427
C          C       0.11254   0.12966   0.26651  -0.12442
C          C       0.53574   0.49856   0.27831   0.24857
C          C       0.28985   0.40880   0.30693   0.59981
C          C       0.46427   0.50144   0.72169   0.24862
C          C       0.54335   0.77294   0.36465  -0.12499
C          C       0.04520   0.93628   0.73918   0.46170
C          C       0.13503   0.78180   0.01483  -0.16723
C          C       0.36254   0.32825   0.78151  -0.09094
C          C       0.54520   0.43628   0.76082   0.46163
C          C       0.55935   0.79107   0.32394  -0.08714
C          C       0.73073   0.08863   0.81450   0.58712
C          C       0.00274   0.54365   0.48735  -0.09864
C          C       0.45666   0.22706   0.63535  -0.12504
C          C       0.10900   0.76413   0.91992   0.46049
C          C       0.41573   0.47666   0.28446  -0.15903
C          C       0.49058   0.03280   0.96918  -0.03322
C          C       0.84820   0.02236   0.78850  -0.18741
C          C       0.64851   0.43463   0.30243  -0.01482
C          C       0.39101   0.73587   0.41992   0.46071
C          C       0.13745   0.17175   0.28151  -0.09108
C          C       0.58427   0.52334   0.71554  -0.15901
C          C       0.48360   0.72343   0.49297   0.24933
C          C       0.78986   0.90880   0.19307   0.59978
C          C       0.46912   0.80937   0.25073   0.57310
C          C       0.60079   0.71629   0.51468  -0.19027
C          C       0.01214   0.51105   0.45669  -0.09795
C          C       0.50274   0.04365   0.01265  -0.09871
C          C       0.04310   0.71021   0.79466  -0.01146
C          C       0.99059   0.53280   0.53082  -0.03346
C          C       0.92468   0.25334   0.12340  -0.04723
C          C       0.91574   0.97667   0.21554  -0.15935
C          C       0.34820   0.52236   0.71150  -0.18732
C          C       0.49726   0.95635   0.98735  -0.09867
C          C       0.82410   0.25116   0.15352  -0.09427
C          C       0.66014   0.23089   0.69391  -0.08655
C          C       0.00942   0.46720   0.46918  -0.03356
C          C       0.98228   0.20076   0.92025  -0.08447
C          C       0.40027   0.63058   0.20110  -0.09414
C          C       0.09978   0.20460   0.94227  -0.01615
C          C       0.42468   0.75334   0.37660  -0.04722
C          C       0.56555   0.73920   0.17954   0.56741
N          N       0.95401   0.95879   0.76306  -0.33882
N          N       0.50902   0.26443   0.55003  -0.33755
N          N       0.99099   0.23557   0.05003  -0.33762
N          N       0.45400   0.45879   0.73694  -0.33883
N          N       0.00902   0.76443   0.94997  -0.33760
N          N       0.04600   0.04121   0.23694  -0.33865
N          N       0.49099   0.73557   0.44997  -0.33759
N          N       0.54600   0.54122   0.26306  -0.33882
O          O       0.62357   0.06719   0.81169  -0.53914
O          O       0.51952   0.24462   0.84433  -0.54756
O          O       0.84901   0.04732   0.26977  -0.42860
O          O       0.71336   0.69062   0.62124  -0.52950
O          O       0.74646   0.12744   0.82731  -0.53453
O          O       0.47296   0.15110   0.85709  -1.00044
O          O       0.21913   0.77706   0.92873  -0.42723
O          O       0.21336   0.19061   0.87876  -0.52950
O          O       0.86937   0.30290   0.27320  -0.54246
O          O       0.98049   0.25538   0.34433  -0.54746
O          O       0.87643   0.43281   0.31169  -0.53902
O          O       0.02704   0.34890   0.35709  -1.00045
O          O       0.78088   0.22294   0.07127  -0.42756
O          O       0.71912   0.27706   0.57127  -0.42721
O          O       0.37643   0.93281   0.18831  -0.53894
O          O       0.25354   0.87256   0.17269  -0.53475
O          O       0.82415   0.69099   0.55823  -0.54133
O          O       0.75354   0.37256   0.32731  -0.53472
O          O       0.14074   0.69229   0.56097  -0.53439
O          O       0.85927   0.30771   0.43903  -0.53417
O          O       0.92874   0.67034   0.74016  -0.53155
O          O       0.24647   0.62744   0.67269  -0.53451
O          O       0.75298   0.20344   0.87685  -0.51675
O          O       0.16825   0.25938   0.30743  -0.52759
O          O       0.15099   0.95268   0.73023  -0.42838
O          O       0.36937   0.80291   0.22680  -0.54260
O          O       0.64073   0.19229   0.93903  -0.53427
O          O       0.12358   0.56719   0.68831  -0.53928
O          O       0.02589   0.44408   0.39723  -0.55497
O          O       0.28664   0.30939   0.37876  -0.52948
O          O       0.29859   0.36764   0.30733  -0.52243
O          O       0.34901   0.54732   0.23023  -0.42883
O          O       0.01909   0.39296   0.45020  -0.55116
O          O       0.79860   0.86764   0.19267  -0.52243
O          O       0.63063   0.19710   0.77320  -0.54238
O          O       0.13064   0.69710   0.72680  -0.54233
O          O       0.25298   0.70344   0.62315  -0.51675
O          O       0.48049   0.75538   0.15567  -0.54746
O          O       0.32414   0.19099   0.94177  -0.54142
O          O       0.17586   0.30901   0.44177  -0.54142
O          O       0.24703   0.79656   0.12314  -0.51695
O          O       0.66826   0.75938   0.19257  -0.52728
O          O       0.74702   0.29656   0.37685  -0.51687
O          O       0.31060   0.06906   0.81387  -0.53485
O          O       0.42873   0.17034   0.75984  -0.53133
O          O       0.81061   0.56906   0.68613  -0.53483
O          O       0.83175   0.74063   0.69257  -0.52773
O          O       0.98092   0.60704   0.54980  -0.55096
O          O       0.18940   0.43094   0.31387  -0.53480
O          O       0.07127   0.32967   0.25984  -0.53115
O          O       0.52590   0.94408   0.10277  -0.55493
O          O       0.78665   0.80939   0.12124  -0.52946
O          O       0.65099   0.45268   0.76977  -0.42851
O          O       0.33174   0.24063   0.80743  -0.52757
O          O       0.01952   0.74463   0.65567  -0.54754
O          O       0.67587   0.80901   0.05822  -0.54164
O          O       0.51910   0.89296   0.04980  -0.55105
O          O       0.97411   0.55593   0.60277  -0.55505
O          O       0.48091   0.10704   0.95020  -0.55090
O          O       0.28088   0.72294   0.42873  -0.42757
O          O       0.20141   0.13236   0.80733  -0.52230
O          O       0.52704   0.84890   0.14291  -1.00046
O          O       0.47411   0.05593   0.89723  -0.55504
O          O       0.97297   0.65110   0.64291  -1.00047
O          O       0.68940   0.93094   0.18613  -0.53482
O          O       0.35929   0.80771   0.06097  -0.53396
O          O       0.57127   0.82967   0.24016  -0.53103
O          O       0.70141   0.63236   0.69267  -0.52231

