data_crystal

_audit_creation_method 'AiiDA-DDEC plugin'

_cell_length_a        11.18120
_cell_length_b        25.45628
_cell_length_c        25.45488

_cell_angle_alpha     87.24201
_cell_angle_beta     77.30496
_cell_angle_gamma     77.31766

_symmetry_space_group_name_Hall 'P 1'
_symmetry_space_group_name_H-M  'P 1'

loop_
_symmetry_equiv_pos_as_xyz
 'x,y,z'

loop_
_atom_site_label
_atom_site_type_symbol
_atom_site_fract_x
_atom_site_fract_y
_atom_site_fract_z
_atom_site_charge
Cu         Cu      0.49915   0.32130   0.73789   0.23950
Cu         Cu      0.53870   0.70185   0.72810   0.21905
Cu         Cu      0.55876   0.17838   0.76223   0.23854
Cu         Cu      0.96871   0.79811   0.77175   0.21753
Cu         Cu      0.32122   0.73787   0.17868   0.23927
Cu         Cu      0.73975   0.72831   0.79805   0.22041
Cu         Cu      0.23722   0.76234   0.32167   0.23911
Cu         Cu      0.26691   0.77162   0.70175   0.21876
Cu         Cu      0.50080   0.67873   0.26209   0.23950
Cu         Cu      0.46129   0.29816   0.27191   0.21902
Cu         Cu      0.44123   0.82162   0.23777   0.23860
Cu         Cu      0.03128   0.20186   0.22823   0.21751
Cu         Cu      0.67876   0.26213   0.82135   0.23913
Cu         Cu      0.26024   0.27169   0.20196   0.22036
Cu         Cu      0.76276   0.23765   0.67835   0.23914
Cu         Cu      0.73310   0.22837   0.29827   0.21871
H          H       0.09293   0.53307   0.71493   0.10773
H          H       0.19463   0.43608   0.70902   0.09587
H          H       0.06814   0.36539   0.71905   0.11141
H          H       0.73026   0.49044   0.73770   0.10646
H          H       0.90722   0.32734   0.78768   0.13192
H          H       0.66994   0.41586   0.69063   0.11864
H          H       0.95380   0.60899   0.77396   0.09903
H          H       0.67855   0.57509   0.69700   0.11138
H          H       0.30822   0.51878   0.77033   0.11282
H          H       0.02046   0.64559   0.85750   0.09644
H          H       0.90942   0.57651   0.90507   0.10101
H          H       0.99636   0.47934   0.88862   0.11271
H          H       0.05425   0.39747   0.84085   0.10630
H          H       0.41042   0.43623   0.78366   0.09784
H          H       0.43649   0.58520   0.77257   0.11156
H          H       0.08607   0.69194   0.77546   0.10390
H          H       0.34111   0.96701   0.78496   0.10676
H          H       0.33962   0.06401   0.79087   0.09643
H          H       0.15224   0.13461   0.78108   0.11126
H          H       0.95835   0.00961   0.76233   0.10662
H          H       0.02257   0.17257   0.71215   0.13083
H          H       0.77642   0.08414   0.80932   0.11879
H          H       0.33713   0.89071   0.72598   0.10011
H          H       0.95079   0.92483   0.80328   0.11095
H          H       0.59756   0.98117   0.72951   0.11183
H          H       0.52290   0.85454   0.64254   0.09666
H          H       0.39047   0.92364   0.59497   0.10086
H          H       0.36475   0.02078   0.61108   0.11331
H          H       0.29289   0.10277   0.65916   0.10670
H          H       0.63113   0.06372   0.71593   0.09850
H          H       0.79276   0.91517   0.72787   0.11147
H          H       0.55392   0.80785   0.72396   0.10260
H          H       0.12588   0.71479   0.96682   0.10785
H          H       0.13073   0.70905   0.06381   0.09728
H          H       0.93362   0.71903   0.13459   0.11156
H          H       0.72052   0.73775   0.00978   0.10626
H          H       0.73461   0.78786   0.17276   0.13156
H          H       0.58642   0.69074   0.08396   0.11872
H          H       0.06252   0.77402   0.89084   0.09956
H          H       0.75326   0.69698   0.92495   0.11009
H          H       0.32707   0.77047   0.98121   0.11251
H          H       0.16470   0.85744   0.85474   0.09633
H          H       0.98482   0.90487   0.92400   0.10071
H          H       0.97543   0.88856   0.02112   0.11262
H          H       0.95199   0.84050   0.10296   0.10701
H          H       0.34719   0.78411   0.06375   0.09856
H          H       0.52036   0.77237   0.91508   0.11164
H          H       0.27739   0.77573   0.80800   0.10285
H          H       0.80870   0.78482   0.53277   0.10663
H          H       0.90372   0.79084   0.43576   0.09672
H          H       0.78665   0.78109   0.36534   0.11142
H          H       0.46782   0.76236   0.49056   0.10577
H          H       0.69455   0.71228   0.32738   0.13151
H          H       0.36018   0.80941   0.41594   0.11925
H          H       0.72800   0.72603   0.60916   0.09915
H          H       0.37591   0.80308   0.57504   0.11149
H          H       0.07871   0.72955   0.51885   0.11101
H          H       0.87787   0.64264   0.64565   0.09553
H          H       0.81437   0.59498   0.57660   0.10114
H          H       0.88515   0.61122   0.47940   0.11338
H          H       0.89555   0.65882   0.39743   0.10618
H          H       0.19394   0.71639   0.43629   0.09741
H          H       0.20832   0.72778   0.58493   0.11130
H          H       0.86208   0.72393   0.69223   0.10263
H          H       0.90709   0.46692   0.28508   0.10785
H          H       0.80538   0.56391   0.29100   0.09605
H          H       0.93187   0.63460   0.28097   0.11119
H          H       0.26977   0.50957   0.26230   0.10641
H          H       0.09275   0.67264   0.21231   0.13213
H          H       0.33012   0.58412   0.30934   0.11856
H          H       0.04624   0.39101   0.22604   0.09921
H          H       0.32147   0.42491   0.30299   0.11114
H          H       0.69182   0.48122   0.22967   0.11281
H          H       0.97956   0.35439   0.14251   0.09664
H          H       0.09062   0.42347   0.09495   0.10090
H          H       0.00368   0.52065   0.11138   0.11260
H          H       0.94572   0.60254   0.15917   0.10643
H          H       0.58960   0.56373   0.21631   0.09796
H          H       0.56353   0.41481   0.22745   0.11170
H          H       0.91393   0.30804   0.22456   0.10365
H          H       0.65887   0.03298   0.21506   0.10670
H          H       0.66036   0.93598   0.20913   0.09648
H          H       0.84777   0.86537   0.21889   0.11135
H          H       0.04162   0.99039   0.23768   0.10656
H          H       0.97741   0.82742   0.28786   0.13111
H          H       0.22354   0.91586   0.19070   0.11878
H          H       0.66286   0.10929   0.27398   0.10014
H          H       0.04920   0.07517   0.19671   0.11092
H          H       0.40246   0.01881   0.27050   0.11116
H          H       0.47712   0.14546   0.35744   0.09666
H          H       0.60947   0.07637   0.40505   0.10076
H          H       0.63521   0.97923   0.38895   0.11329
H          H       0.70712   0.89721   0.34086   0.10632
H          H       0.36887   0.93628   0.28408   0.09857
H          H       0.20728   0.08481   0.27213   0.11141
H          H       0.44606   0.19215   0.27603   0.10265
H          H       0.87409   0.28521   0.03321   0.10793
H          H       0.86918   0.29096   0.93622   0.09755
H          H       0.06624   0.28099   0.86542   0.11146
H          H       0.27943   0.26223   0.99020   0.10629
H          H       0.26534   0.21215   0.82725   0.13167
H          H       0.41350   0.30931   0.91602   0.11860
H          H       0.93740   0.22600   0.10920   0.09959
H          H       0.24672   0.30300   0.07504   0.11021
H          H       0.67289   0.22954   0.01880   0.11242
H          H       0.83531   0.14255   0.14526   0.09636
H          H       0.01520   0.09514   0.07599   0.10064
H          H       0.02452   0.11143   0.97887   0.11259
H          H       0.04801   0.15950   0.89706   0.10689
H          H       0.65281   0.21591   0.93622   0.10069
H          H       0.47956   0.22764   0.08495   0.11185
H          H       0.72262   0.22427   0.19200   0.10268
H          H       0.19132   0.21519   0.46722   0.10677
H          H       0.09630   0.20911   0.56423   0.09708
H          H       0.21333   0.21889   0.63466   0.11146
H          H       0.53216   0.23765   0.50945   0.10560
H          H       0.30546   0.28774   0.67261   0.13150
H          H       0.63984   0.19061   0.58403   0.11931
H          H       0.27198   0.27395   0.39085   0.09924
H          H       0.62409   0.19694   0.42498   0.11123
H          H       0.92132   0.27043   0.48117   0.11116
H          H       0.12208   0.35736   0.35436   0.09557
H          H       0.18567   0.40498   0.42342   0.10104
H          H       0.11485   0.38876   0.52061   0.11323
H          H       0.10439   0.34118   0.60258   0.10629
H          H       0.80602   0.28364   0.56372   0.09752
H          H       0.79167   0.27223   0.41508   0.11132
H          H       0.13793   0.27606   0.30777   0.10260
C          C       0.90357   0.51822   0.72592   0.13330
C          C       0.03711   0.50268   0.71852  -0.24479
C          C       0.09285   0.44815   0.71541  -0.04561
C          C       0.02313   0.40783   0.72102  -0.27265
C          C       0.89068   0.42447   0.72663   0.14023
C          C       0.83225   0.47888   0.72870  -0.28084
C          C       0.82808   0.34120   0.76892   0.07197
C          C       0.70335   0.38780   0.72007   0.04230
C          C       0.87470   0.61423   0.75462   0.02444
C          C       0.72688   0.59553   0.71907   0.01128
C          C       0.15919   0.49229   0.82754   0.14931
C          C       0.22408   0.53112   0.80158  -0.28643
C          C       0.17424   0.58553   0.81190   0.14306
C          C       0.05687   0.60323   0.84817  -0.27862
C          C       0.99674   0.56358   0.87559  -0.04956
C          C       0.04465   0.50896   0.86665  -0.24877
C          C       0.15167   0.39437   0.82156   0.04564
C          C       0.33439   0.41521   0.79182  -0.01154
C          C       0.36614   0.61936   0.76475   0.04575
C          C       0.18561   0.67473   0.76753   0.05430
C          C       0.14787   0.98179   0.77401   0.13438
C          C       0.25845   0.99736   0.78135  -0.24117
C          C       0.25641   0.05188   0.78448  -0.04863
C          C       0.15194   0.09217   0.77895  -0.27254
C          C       0.04192   0.07549   0.77329   0.14067
C          C       0.03996   0.02109   0.77122  -0.28266
C          C       0.93853   0.15875   0.73104   0.07524
C          C       0.81143   0.11219   0.77992   0.04202
C          C       0.24384   0.88568   0.74558   0.02125
C          C       0.04163   0.90447   0.78108   0.01131
C          C       0.47937   0.00779   0.67223   0.13974
C          C       0.55676   0.96891   0.69830  -0.28426
C          C       0.57122   0.91451   0.68811   0.14298
C          C       0.50768   0.89688   0.65187  -0.27953
C          C       0.43550   0.93656   0.62441  -0.04866
C          C       0.42027   0.99117   0.63322  -0.24953
C          C       0.36800   0.10576   0.67843   0.03934
C          C       0.54211   0.08476   0.70794  -0.02116
C          C       0.74963   0.88073   0.73532   0.04430
C          C       0.62795   0.82515   0.73217   0.05660
C          C       0.92169   0.72596   0.98174   0.13353
C          C       0.03970   0.71853   0.99725  -0.24262
C          C       0.04104   0.71549   0.05176  -0.04828
C          C       0.93111   0.72117   0.09214  -0.27156
C          C       0.81538   0.72680   0.07552   0.13950
C          C       0.81114   0.72882   0.02114  -0.28127
C          C       0.66960   0.76897   0.15884   0.07391
C          C       0.59165   0.72008   0.11217   0.04336
C          C       0.98889   0.75446   0.88568   0.02217
C          C       0.82203   0.71908   0.90451   0.01322
C          C       0.15158   0.82767   0.00794   0.13959
C          C       0.25505   0.80169   0.96899  -0.28473
C          C       0.25907   0.81189   0.91460   0.14251
C          C       0.15910   0.84810   0.89707  -0.27893
C          C       0.05949   0.87548   0.93683  -0.04895
C          C       0.05327   0.86663   0.99143  -0.24805
C          C       0.04645   0.82125   0.10587   0.03831
C          C       0.25019   0.79198   0.08484  -0.01971
C          C       0.48467   0.76476   0.88070   0.04478
C          C       0.35966   0.76766   0.82524   0.05576
C          C       0.62979   0.77403   0.51816   0.13016
C          C       0.75602   0.78134   0.50252  -0.24131
C          C       0.80833   0.78448   0.44796  -0.04852
C          C       0.74382   0.77901   0.40778  -0.27143
C          C       0.61700   0.77341   0.42451   0.13976
C          C       0.56088   0.77132   0.47894  -0.27909
C          C       0.59673   0.73115   0.34125   0.07426
C          C       0.42313   0.78002   0.38786   0.04163
C          C       0.62963   0.74547   0.61424   0.02443
C          C       0.44631   0.78104   0.59549   0.00988
C          C       0.98688   0.67233   0.49230   0.13966
C          C       0.02567   0.69835   0.53114  -0.28412
C          C       0.98602   0.68811   0.58555   0.14170
C          C       0.90486   0.65190   0.60328  -0.27625
C          C       0.87226   0.62442   0.56364  -0.05030
C          C       0.91141   0.63324   0.50901  -0.24865
C          C       0.97359   0.67817   0.39434   0.04164
C          C       0.12611   0.70819   0.41527  -0.01766
C          C       0.13056   0.73539   0.61928   0.04527
C          C       0.95334   0.73218   0.67489   0.05520
C          C       0.09645   0.48178   0.27408   0.13265
C          C       0.96290   0.49732   0.28148  -0.24479
C          C       0.90716   0.55184   0.28461  -0.04564
C          C       0.97688   0.59216   0.27900  -0.27242
C          C       0.10934   0.57553   0.27338   0.13993
C          C       0.16778   0.52112   0.27131  -0.28032
C          C       0.17190   0.65879   0.23108   0.07215
C          C       0.29668   0.61220   0.27992   0.04261
C          C       0.12533   0.38576   0.24538   0.02475
C          C       0.27315   0.40447   0.28093   0.01119
C          C       0.84081   0.50770   0.17246   0.14939
C          C       0.77595   0.46887   0.19842  -0.28659
C          C       0.82579   0.41446   0.18811   0.14318
C          C       0.94315   0.39676   0.15182  -0.27869
C          C       0.00328   0.43641   0.12441  -0.04960
C          C       0.95538   0.49103   0.13335  -0.24877
C          C       0.84831   0.60563   0.17845   0.04529
C          C       0.66559   0.58477   0.20818  -0.01179
C          C       0.63388   0.38063   0.23526   0.04567
C          C       0.81440   0.32526   0.23248   0.05450
C          C       0.85212   0.01821   0.22600   0.13406
C          C       0.74154   0.00263   0.21866  -0.24097
C          C       0.74358   0.94811   0.21552  -0.04850
C          C       0.84805   0.90782   0.22104  -0.27271
C          C       0.95807   0.92450   0.22671   0.14070
C          C       0.96002   0.97890   0.22878  -0.28262
C          C       0.06144   0.84124   0.26898   0.07477
C          C       0.18855   0.88780   0.22009   0.04206
C          C       0.75614   0.11432   0.25440   0.02139
C          C       0.95835   0.09552   0.21890   0.01157
C          C       0.52063   0.99220   0.32778   0.13894
C          C       0.44324   0.03108   0.30171  -0.28308
C          C       0.42879   0.08548   0.31189   0.14299
C          C       0.49233   0.10312   0.34813  -0.27946
C          C       0.56448   0.06344   0.37560  -0.04900
C          C       0.57970   0.00883   0.36680  -0.24908
C          C       0.63199   0.89423   0.32159   0.03965
C          C       0.45789   0.91524   0.29207  -0.02108
C          C       0.25038   0.11925   0.26467   0.04492
C          C       0.37204   0.17484   0.26784   0.05652
C          C       0.07828   0.27402   0.01826   0.13335
C          C       0.96025   0.28146   0.00276  -0.24257
C          C       0.95888   0.28451   0.94826  -0.04854
C          C       0.06879   0.27884   0.90786  -0.27106
C          C       0.18453   0.27322   0.92447   0.13931
C          C       0.18880   0.27117   0.97885  -0.28154
C          C       0.33035   0.23104   0.84116   0.07396
C          C       0.40827   0.27995   0.88783   0.04356
C          C       0.01110   0.24553   0.11433   0.02234
C          C       0.17795   0.28092   0.09548   0.01284
C          C       0.84838   0.17233   0.99206   0.13946
C          C       0.74492   0.19831   0.03102  -0.28459
C          C       0.74090   0.18811   0.08541   0.14243
C          C       0.84088   0.15190   0.10293  -0.27888
C          C       0.94050   0.12452   0.06318  -0.04914
C          C       0.94670   0.13337   0.00858  -0.24786
C          C       0.95356   0.17875   0.89413   0.03819
C          C       0.74982   0.20804   0.91515  -0.02180
C          C       0.51530   0.23524   0.11933   0.04440
C          C       0.64034   0.23234   0.17476   0.05546
C          C       0.37020   0.22598   0.48184   0.13023
C          C       0.24398   0.21865   0.49748  -0.24121
C          C       0.19168   0.21549   0.55203  -0.04870
C          C       0.25617   0.22097   0.59222  -0.27164
C          C       0.38297   0.22658   0.57549   0.13987
C          C       0.43910   0.22869   0.52106  -0.27927
C          C       0.40326   0.26884   0.65874   0.07434
C          C       0.57684   0.21996   0.61214   0.04197
C          C       0.37035   0.25452   0.38576   0.02444
C          C       0.55369   0.21898   0.40452   0.00981
C          C       0.01312   0.32765   0.50770   0.14005
C          C       0.97434   0.30163   0.46887  -0.28417
C          C       0.01397   0.31188   0.41446   0.14132
C          C       0.09514   0.34809   0.39673  -0.27601
C          C       0.12774   0.37556   0.43638  -0.05042
C          C       0.08860   0.36673   0.49100  -0.24877
C          C       0.02637   0.32182   0.60568   0.04103
C          C       0.87387   0.29180   0.58474  -0.01733
C          C       0.86942   0.26461   0.38072   0.04498
C          C       0.04666   0.26781   0.32512   0.05498
N          N       0.81325   0.38636   0.73704   0.01542
N          N       0.65133   0.34744   0.74241  -0.16896
N          N       0.73041   0.31806   0.77316  -0.16171
N          N       0.84004   0.57242   0.73293   0.03260
N          N       0.69250   0.64719   0.73350  -0.16059
N          N       0.78387   0.65903   0.75645  -0.17655
N          N       0.23862   0.62390   0.78290   0.01493
N          N       0.38897   0.66379   0.73875  -0.16556
N          N       0.27491   0.69889   0.74066  -0.15489
N          N       0.21148   0.43765   0.81614   0.00060
N          N       0.34558   0.36281   0.78265  -0.16547
N          N       0.23143   0.34943   0.80145  -0.23603
N          N       0.93687   0.11361   0.76293   0.01656
N          N       0.74148   0.15261   0.75764  -0.16938
N          N       0.82200   0.18195   0.72684  -0.16352
N          N       0.14564   0.92756   0.76718   0.03321
N          N       0.07331   0.85280   0.76664  -0.16117
N          N       0.19949   0.84092   0.74372  -0.17429
N          N       0.64503   0.87609   0.71704   0.01474
N          N       0.79111   0.83628   0.76124  -0.16461
N          N       0.71444   0.80104   0.75911  -0.15606
N          N       0.46570   0.06241   0.68367   0.02401
N          N       0.49155   0.13710   0.71741  -0.16364
N          N       0.38265   0.15057   0.69878  -0.23736
N          N       0.69999   0.73711   0.11367   0.01602
N          N       0.49925   0.74234   0.15257  -0.17048
N          N       0.54882   0.77314   0.18198  -0.16247
N          N       0.91238   0.73283   0.92754   0.03109
N          N       0.83913   0.73358   0.85286  -0.16181
N          N       0.94251   0.75642   0.84096  -0.17403
N          N       0.36173   0.78293   0.87614   0.01615
N          N       0.55204   0.73886   0.83622  -0.16604
N          N       0.47317   0.74083   0.80106  -0.15567
N          N       0.14943   0.81618   0.06254   0.02294
N          N       0.20918   0.78242   0.13717  -0.16479
N          N       0.08158   0.80090   0.15066  -0.23691
N          N       0.54997   0.76300   0.38644   0.01589
N          N       0.39358   0.75773   0.34743  -0.16832
N          N       0.50340   0.72699   0.31805  -0.16384
N          N       0.57337   0.76713   0.57239   0.03454
N          N       0.42625   0.76662   0.64715  -0.16105
N          N       0.54053   0.74366   0.65902  -0.17504
N          N       0.02145   0.71704   0.62394   0.01583
N          N       0.12752   0.76135   0.66372  -0.16677
N          N       0.01563   0.75920   0.69897  -0.15331
N          N       0.02781   0.68368   0.43766   0.02090
N          N       0.12805   0.71744   0.36288  -0.16599
N          N       0.03301   0.69846   0.34945  -0.23701
N          N       0.18676   0.61363   0.26296   0.01545
N          N       0.34868   0.65256   0.25757  -0.16922
N          N       0.26957   0.68193   0.22683  -0.16215
N          N       0.15998   0.42758   0.26708   0.03253
N          N       0.30753   0.35281   0.26649  -0.16057
N          N       0.21616   0.34097   0.24355  -0.17651
N          N       0.76141   0.37609   0.21711   0.01482
N          N       0.61104   0.33621   0.26125  -0.16526
N          N       0.72508   0.30110   0.25934  -0.15511
N          N       0.78852   0.56233   0.18386   0.00112
N          N       0.65438   0.63717   0.21736  -0.16489
N          N       0.76853   0.65055   0.19856  -0.23656
N          N       0.06311   0.88638   0.23708   0.01676
N          N       0.25850   0.84737   0.24238  -0.16989
N          N       0.17797   0.81804   0.27318  -0.16297
N          N       0.85434   0.07244   0.23281   0.03342
N          N       0.92669   0.14718   0.23335  -0.16151
N          N       0.80051   0.15907   0.25626  -0.17448
N          N       0.35496   0.12390   0.28296   0.01424
N          N       0.20888   0.16371   0.23877  -0.16468
N          N       0.28554   0.19895   0.24090  -0.15602
N          N       0.53430   0.93758   0.31634   0.02423
N          N       0.50845   0.86291   0.28258  -0.16363
N          N       0.61733   0.84942   0.30123  -0.23738
N          N       0.29993   0.26292   0.88633   0.01609
N          N       0.50069   0.25767   0.84744  -0.17115
N          N       0.45114   0.22686   0.81804  -0.16191
N          N       0.08761   0.26715   0.07246   0.03114
N          N       0.16086   0.26642   0.14713  -0.16190
N          N       0.05746   0.24359   0.15905  -0.17392
N          N       0.63825   0.21707   0.12387   0.01651
N          N       0.44796   0.26114   0.16381  -0.16566
N          N       0.52685   0.25916   0.19896  -0.15563
N          N       0.85056   0.18384   0.93746   0.02287
N          N       0.79086   0.21758   0.86282  -0.16448
N          N       0.91845   0.19910   0.84933  -0.23679
N          N       0.45000   0.23699   0.61356   0.01618
N          N       0.60641   0.24225   0.65256  -0.16878
N          N       0.49660   0.27300   0.68195  -0.16390
N          N       0.42662   0.23288   0.42761   0.03457
N          N       0.57374   0.23338   0.35285  -0.16085
N          N       0.45945   0.25632   0.34098  -0.17512
N          N       0.97855   0.28295   0.37606   0.01600
N          N       0.87246   0.23866   0.33627  -0.16627
N          N       0.98436   0.24081   0.30102  -0.15338
N          N       0.97217   0.31631   0.56235   0.02073
N          N       0.87193   0.28254   0.63712  -0.16635
N          N       0.96698   0.30152   0.65056  -0.23666

