data_crystal

_audit_creation_method 'AiiDA-DDEC plugin'

_cell_length_a        19.55156
_cell_length_b        19.54653
_cell_length_c        33.62870

_cell_angle_alpha     106.74389
_cell_angle_beta     106.75038
_cell_angle_gamma     90.01382

_symmetry_space_group_name_Hall 'P 1'
_symmetry_space_group_name_H-M  'P 1'

loop_
_symmetry_equiv_pos_as_xyz
 'x,y,z'

loop_
_atom_site_label
_atom_site_type_symbol
_atom_site_fract_x
_atom_site_fract_y
_atom_site_fract_z
_atom_site_charge
Cu         Cu      0.99748   0.06324   0.99570   0.85593
Cu         Cu      0.99749   0.43263   0.99576   0.85397
Cu         Cu      0.43246   0.99739   0.49540   0.85813
Cu         Cu      0.06305   0.99723   0.49525   0.85855
Cu         Cu      0.00251   0.56736   0.00424   0.85410
Cu         Cu      0.00252   0.93675   0.00430   0.85579
Cu         Cu      0.56754   0.00261   0.50460   0.85811
Cu         Cu      0.93695   0.00276   0.50475   0.85849
Cu         Cu      0.60575   0.35569   0.21006   0.91356
Cu         Cu      0.35592   0.60603   0.71058   0.91292
Cu         Cu      0.39425   0.64430   0.78994   0.91354
Cu         Cu      0.64408   0.39397   0.28942   0.91292
H          H       0.41663   0.21293   0.18275   0.12858
H          H       0.29311   0.21918   0.15882   0.10995
H          H       0.18654   0.17130   0.09345   0.11857
H          H       0.19828   0.96354   0.11254   0.11991
H          H       0.30539   0.01029   0.17772   0.11166
H          H       0.10219   0.18093   0.99242   0.11830
H          H       0.76648   0.47087   0.18369   0.12575
H          H       0.86578   0.44042   0.15941   0.11103
H          H       0.90670   0.42270   0.09362   0.11848
H          H       0.91438   0.64908   0.11209   0.12173
H          H       0.87261   0.66785   0.17771   0.11123
H          H       0.89032   0.31158   0.99261   0.11930
H          H       0.47042   0.41685   0.68335   0.12915
H          H       0.44026   0.29352   0.65930   0.11037
H          H       0.42251   0.18710   0.59377   0.12091
H          H       0.64893   0.19786   0.61222   0.11940
H          H       0.66767   0.30484   0.67755   0.11143
H          H       0.31163   0.10233   0.49264   0.11911
H          H       0.21285   0.76610   0.68315   0.12584
H          H       0.21903   0.86576   0.65891   0.11102
H          H       0.17101   0.90693   0.59326   0.11829
H          H       0.96335   0.91424   0.61236   0.11896
H          H       0.01026   0.87229   0.67780   0.11297
H          H       0.18090   0.89016   0.49239   0.11853
H          H       0.58320   0.52955   0.81669   0.12435
H          H       0.70648   0.55975   0.84070   0.11091
H          H       0.81289   0.57743   0.90623   0.11819
H          H       0.80210   0.35098   0.88775   0.11931
H          H       0.69509   0.33227   0.82240   0.11180
H          H       0.89768   0.68836   0.00736   0.11828
H          H       0.23388   0.78718   0.81689   0.12591
H          H       0.13426   0.78094   0.84109   0.11032
H          H       0.09306   0.82905   0.90673   0.11861
H          H       0.08573   0.03668   0.88758   0.12228
H          H       0.12777   0.98976   0.82214   0.11323
H          H       0.10981   0.81910   0.00761   0.11926
H          H       0.52915   0.23354   0.31628   0.12907
H          H       0.55956   0.13420   0.34059   0.11037
H          H       0.57739   0.09331   0.40639   0.11835
H          H       0.35100   0.08564   0.38795   0.11925
H          H       0.33223   0.12735   0.32235   0.11397
H          H       0.68842   0.10970   0.50739   0.11892
H          H       0.78706   0.58336   0.31722   0.12556
H          H       0.78083   0.70688   0.34116   0.11054
H          H       0.82865   0.81345   0.40655   0.11790
H          H       0.03640   0.80175   0.38750   0.11900
H          H       0.98972   0.69469   0.32232   0.11157
H          H       0.81907   0.89779   0.50758   0.11922
H          H       0.58337   0.78706   0.81725   0.12847
H          H       0.70689   0.78082   0.84118   0.10999
H          H       0.81346   0.82870   0.90655   0.11863
H          H       0.80172   0.03645   0.88746   0.11977
H          H       0.69461   0.98971   0.82228   0.11165
H          H       0.89781   0.81907   0.00758   0.11810
H          H       0.23352   0.52913   0.81631   0.12560
H          H       0.13422   0.55958   0.84059   0.11099
H          H       0.09330   0.57730   0.90638   0.11829
H          H       0.08562   0.35092   0.88790   0.12308
H          H       0.12739   0.33215   0.82229   0.11137
H          H       0.10968   0.68842   0.00739   0.11940
H          H       0.52958   0.58315   0.31665   0.12917
H          H       0.55974   0.70648   0.34070   0.11048
H          H       0.57749   0.81290   0.40623   0.12090
H          H       0.35107   0.80214   0.38778   0.11927
H          H       0.33233   0.69515   0.32245   0.11145
H          H       0.68837   0.89767   0.50736   0.11916
H          H       0.78716   0.23389   0.31685   0.12570
H          H       0.78097   0.13424   0.34109   0.11093
H          H       0.82899   0.09307   0.40674   0.11823
H          H       0.03665   0.08575   0.38764   0.11896
H          H       0.98975   0.12771   0.32220   0.11299
H          H       0.81910   0.10983   0.50761   0.11852
H          H       0.41680   0.47045   0.18331   0.12439
H          H       0.29352   0.44024   0.15930   0.11102
H          H       0.18711   0.42257   0.09377   0.11829
H          H       0.19790   0.64902   0.11225   0.11923
H          H       0.30492   0.66772   0.17760   0.11173
H          H       0.10232   0.31163   0.99264   0.11823
H          H       0.76613   0.21282   0.18311   0.12593
H          H       0.86574   0.21906   0.15891   0.11017
H          H       0.90694   0.17095   0.09327   0.11857
H          H       0.91427   0.96332   0.11242   0.12238
H          H       0.87223   0.01024   0.17786   0.11320
H          H       0.89019   0.18089   0.99238   0.11928
H          H       0.47085   0.76646   0.68372   0.12917
H          H       0.44044   0.86579   0.65941   0.11030
H          H       0.42262   0.90668   0.59361   0.11830
H          H       0.64900   0.91436   0.61205   0.11936
H          H       0.66777   0.87265   0.67765   0.11398
H          H       0.31158   0.89030   0.49261   0.11907
H          H       0.21294   0.41663   0.68278   0.12561
H          H       0.21917   0.29312   0.65884   0.11059
H          H       0.17135   0.18655   0.59345   0.11800
H          H       0.96360   0.19824   0.61250   0.11901
H          H       0.01028   0.30531   0.67768   0.11151
H          H       0.18093   0.10220   0.49242   0.11908
H          H       0.33828   0.08812   0.24987   0.11145
H          H       0.91190   0.66173   0.25014   0.11455
H          H       0.66182   0.33818   0.74999   0.11442
H          H       0.08838   0.91161   0.74999   0.11409
H          H       0.66172   0.91187   0.75013   0.11146
H          H       0.08810   0.33827   0.74986   0.11458
H          H       0.33818   0.66182   0.25001   0.11427
H          H       0.91162   0.08838   0.25001   0.11417
C          C       0.36906   0.14784   0.21195   0.06718
C          C       0.18627   0.06465   0.09898  -0.03368
C          C       0.30679   0.11811   0.17283   0.07172
C          C       0.12056   0.03819   0.06087   0.58268
C          C       0.42063   0.19786   0.21197  -0.14575
C          C       0.27323   0.16288   0.14831  -0.14082
C          C       0.21367   0.13660   0.11194  -0.09160
C          C       0.21968   0.01934   0.12295  -0.08995
C          C       0.27921   0.04587   0.15954  -0.14577
C          C       0.05496   0.21047   0.99236   0.04915
C          C       0.84320   0.56468   0.21249   0.06670
C          C       0.91259   0.53475   0.09895  -0.03720
C          C       0.86625   0.55531   0.17317   0.07251
C          C       0.94018   0.52321   0.06076   0.58180
C          C       0.79177   0.51494   0.21283  -0.14406
C          C       0.87518   0.48607   0.14869  -0.14312
C          C       0.89819   0.47585   0.11212  -0.08729
C          C       0.90333   0.60398   0.12283  -0.09101
C          C       0.88052   0.61411   0.15960  -0.14460
C          C       0.93747   0.28197   0.99250   0.05003
C          C       0.56448   0.36912   0.71226   0.06574
C          C       0.53452   0.18630   0.59897  -0.03704
C          C       0.55513   0.30679   0.67306   0.07359
C          C       0.52306   0.12064   0.56078   0.58281
C          C       0.51460   0.42082   0.71249  -0.14677
C          C       0.48593   0.27342   0.64864  -0.14353
C          C       0.47570   0.21391   0.61216  -0.09113
C          C       0.60373   0.21947   0.62285  -0.08844
C          C       0.61391   0.27894   0.65953  -0.14632
C          C       0.28198   0.05505   0.49252   0.04929
C          C       0.14786   0.84287   0.71216   0.06772
C          C       0.06443   0.91253   0.59875  -0.03556
C          C       0.11800   0.86598   0.67289   0.07197
C          C       0.03807   0.93982   0.56040   0.58544
C          C       0.19790   0.79141   0.71237  -0.14358
C          C       0.16273   0.87508   0.64833  -0.14179
C          C       0.13641   0.89821   0.61182  -0.08952
C          C       0.01915   0.90320   0.62281  -0.08868
C          C       0.04574   0.88026   0.65952  -0.14644
C          C       0.21047   0.93736   0.49235   0.04999
C          C       0.63091   0.43550   0.78773   0.06705
C          C       0.81364   0.46535   0.90096  -0.03511
C          C       0.69321   0.44485   0.82691   0.07274
C          C       0.87928   0.47675   0.93913   0.58309
C          C       0.57924   0.48537   0.78755  -0.14289
C          C       0.72657   0.51406   0.85134  -0.14299
C          C       0.78606   0.52424   0.88781  -0.08908
C          C       0.78047   0.39616   0.87709  -0.08961
C          C       0.72102   0.38603   0.84042  -0.14562
C          C       0.94496   0.71800   0.00748   0.05053
C          C       0.15709   0.85213   0.78783   0.06716
C          C       0.08741   0.93559   0.90110  -0.03654
C          C       0.13401   0.88200   0.82708   0.07276
C          C       0.05984   0.96195   0.93928   0.58270
C          C       0.20856   0.80213   0.78767  -0.14335
C          C       0.12495   0.83725   0.85166  -0.14130
C          C       0.10179   0.86360   0.88814  -0.08933
C          C       0.09681   0.98089   0.87709  -0.09129
C          C       0.11977   0.95428   0.84041  -0.14759
C          C       0.06262   0.78954   0.00765   0.04805
C          C       0.43534   0.15684   0.28752   0.06523
C          C       0.46542   0.08746   0.40120  -0.03487
C          C       0.44472   0.13377   0.32686   0.07375
C          C       0.47711   0.06020   0.43957   0.58332
C          C       0.48508   0.20825   0.28714  -0.14597
C          C       0.51395   0.12480   0.35133  -0.14157
C          C       0.52421   0.10180   0.38793  -0.09048
C          C       0.39617   0.09667   0.37726  -0.08910
C          C       0.38597   0.11946   0.34046  -0.14748
C          C       0.71804   0.06255   0.50750   0.04759
C          C       0.85217   0.63094   0.28805   0.06598
C          C       0.93527   0.81377   0.40107  -0.03529
C          C       0.88189   0.69323   0.32718   0.07194
C          C       0.96175   0.87953   0.43916   0.58343
C          C       0.80214   0.57936   0.28800  -0.14386
C          C       0.83712   0.72677   0.35168  -0.14144
C          C       0.86335   0.78634   0.38807  -0.09041
C          C       0.98061   0.78037   0.37710  -0.08871
C          C       0.95413   0.72084   0.34050  -0.14520
C          C       0.78952   0.94503   0.50763   0.04773
C          C       0.63094   0.85215   0.78805   0.06716
C          C       0.81373   0.93535   0.90102  -0.03369
C          C       0.69321   0.88188   0.82717   0.07162
C          C       0.87944   0.96180   0.93913   0.58262
C          C       0.57937   0.80214   0.78803  -0.14560
C          C       0.72677   0.83712   0.85168  -0.14055
C          C       0.78634   0.86339   0.88806  -0.09163
C          C       0.78032   0.98065   0.87705  -0.08998
C          C       0.72079   0.95413   0.84046  -0.14582
C          C       0.94504   0.78952   0.00764   0.04929
C          C       0.15680   0.43532   0.78750   0.06679
C          C       0.08741   0.46524   0.90105  -0.03736
C          C       0.13375   0.44469   0.82683   0.07256
C          C       0.05982   0.47679   0.93924   0.58191
C          C       0.20823   0.48506   0.78717  -0.14404
C          C       0.12482   0.51393   0.85130  -0.14308
C          C       0.10181   0.52415   0.88788  -0.08727
C          C       0.09668   0.39602   0.87716  -0.09225
C          C       0.11948   0.38588   0.84040  -0.14461
C          C       0.06253   0.71803   0.00749   0.04997
C          C       0.43552   0.63088   0.28774   0.06568
C          C       0.46548   0.81370   0.40103  -0.03703
C          C       0.44487   0.69320   0.32694   0.07360
C          C       0.47694   0.87936   0.43922   0.58297
C          C       0.48540   0.57918   0.28751  -0.14684
C          C       0.51407   0.72658   0.35135  -0.14350
C          C       0.52430   0.78608   0.38783  -0.09116
C          C       0.39627   0.78053   0.37715  -0.08845
C          C       0.38609   0.72106   0.34047  -0.14631
C          C       0.71802   0.94494   0.50748   0.04936
C          C       0.85214   0.15713   0.28784   0.06766
C          C       0.93557   0.08746   0.40125  -0.03565
C          C       0.88200   0.13402   0.32711   0.07188
C          C       0.96193   0.06017   0.43960   0.58551
C          C       0.80210   0.20859   0.28763  -0.14350
C          C       0.83727   0.12492   0.35167  -0.14180
C          C       0.86359   0.10179   0.38818  -0.08945
C          C       0.98085   0.09680   0.37719  -0.08859
C          C       0.95426   0.11973   0.34048  -0.14632
C          C       0.78953   0.06264   0.50764   0.04988
C          C       0.36909   0.56450   0.21227   0.06701
C          C       0.18636   0.53465   0.09904  -0.03522
C          C       0.30679   0.55515   0.17309   0.07292
C          C       0.12072   0.52325   0.06087   0.58317
C          C       0.42076   0.51463   0.21245  -0.14278
C          C       0.27343   0.48594   0.14866  -0.14305
C          C       0.21394   0.47576   0.11219  -0.08901
C          C       0.21953   0.60384   0.12291  -0.08954
C          C       0.27898   0.61397   0.15958  -0.14580
C          C       0.05504   0.28199   0.99252   0.05065
C          C       0.84291   0.14786   0.21217   0.06725
C          C       0.91259   0.06441   0.09890  -0.03659
C          C       0.86599   0.11800   0.17292   0.07268
C          C       0.94016   0.03805   0.06072   0.58243
C          C       0.79144   0.19787   0.21233  -0.14344
C          C       0.87505   0.16274   0.14834  -0.14133
C          C       0.89821   0.13640   0.11186  -0.08931
C          C       0.90319   0.01911   0.12291  -0.09127
C          C       0.88023   0.04572   0.15959  -0.14736
C          C       0.93738   0.21045   0.99235   0.04789
C          C       0.56466   0.84316   0.71248   0.06530
C          C       0.53458   0.91254   0.59880  -0.03478
C          C       0.55528   0.86623   0.67314   0.07368
C          C       0.52289   0.93980   0.56043   0.58340
C          C       0.51492   0.79174   0.71285  -0.14603
C          C       0.48606   0.87520   0.64867  -0.14151
C          C       0.47579   0.89819   0.61207  -0.09048
C          C       0.60383   0.90333   0.62274  -0.08927
C          C       0.61403   0.88054   0.65954  -0.14737
C          C       0.28196   0.93745   0.49250   0.04766
C          C       0.14783   0.36905   0.71195   0.06594
C          C       0.06473   0.18623   0.59893  -0.03515
C          C       0.11811   0.30677   0.67282   0.07201
C          C       0.03826   0.12047   0.56084   0.58328
C          C       0.19787   0.42064   0.71200  -0.14380
C          C       0.16288   0.27323   0.64832  -0.14152
C          C       0.13665   0.21366   0.61192  -0.09035
C          C       0.01939   0.21963   0.62290  -0.08872
C          C       0.04587   0.27916   0.65950  -0.14535
C          C       0.21048   0.05497   0.49237   0.04773
C          C       0.37751   0.12752   0.24977  -0.16869
C          C       0.47817   0.22821   0.24947  -0.01990
C          C       0.53237   0.28217   0.24954   0.58660
C          C       0.87250   0.62251   0.25024  -0.17153
C          C       0.77176   0.52184   0.25047  -0.01906
C          C       0.71771   0.46758   0.25027   0.58657
C          C       0.62246   0.37753   0.74999  -0.17162
C          C       0.52161   0.47840   0.75005  -0.01879
C          C       0.46756   0.53255   0.75019   0.58532
C          C       0.12772   0.87226   0.74999  -0.17192
C          C       0.22850   0.77155   0.75005  -0.02114
C          C       0.28256   0.71761   0.75015   0.58664
C          C       0.62249   0.87247   0.75023  -0.16876
C          C       0.52184   0.77179   0.75053  -0.01999
C          C       0.46763   0.71783   0.75046   0.58659
C          C       0.12750   0.37749   0.74976  -0.17154
C          C       0.22824   0.47816   0.74953  -0.01917
C          C       0.28229   0.53241   0.74973   0.58653
C          C       0.37754   0.62246   0.25001  -0.17163
C          C       0.47839   0.52159   0.24995  -0.01865
C          C       0.53244   0.46744   0.24981   0.58517
C          C       0.87228   0.12774   0.25001  -0.17179
C          C       0.77150   0.22845   0.24995  -0.02125
C          C       0.71744   0.28239   0.24985   0.58675
N          N       0.99613   0.17479   0.99228  -0.18914
N          N       0.99630   0.31766   0.99260  -0.19046
N          N       0.31762   0.99628   0.49257  -0.18915
N          N       0.17481   0.99611   0.49226  -0.18935
N          N       0.00370   0.68234   0.00739  -0.19035
N          N       0.00387   0.82520   0.00772  -0.18934
N          N       0.68238   0.00371   0.50743  -0.18922
N          N       0.82519   0.00389   0.50774  -0.18918
O          O       0.09725   0.97237   0.05030  -0.54924
O          O       0.09216   0.08428   0.04226  -0.55837
O          O       0.53481   0.28594   0.21253  -0.54384
O          O       0.95364   0.57850   0.05028  -0.54651
O          O       0.94929   0.45839   0.04206  -0.55604
O          O       0.67925   0.42766   0.21291  -0.53936
O          O       0.57860   0.09721   0.55045  -0.54866
O          O       0.45850   0.09243   0.54191  -0.55902
O          O       0.42802   0.53536   0.71306  -0.54026
O          O       0.97235   0.95298   0.54987  -0.55023
O          O       0.08409   0.94893   0.54154  -0.55798
O          O       0.28642   0.67941   0.71300  -0.53951
O          O       0.90270   0.42133   0.94961  -0.54776
O          O       0.90747   0.54137   0.95780  -0.55954
O          O       0.46490   0.57193   0.78741  -0.54066
O          O       0.04643   0.02760   0.94978  -0.54898
O          O       0.05074   0.91574   0.95801  -0.55511
O          O       0.32075   0.71379   0.78734  -0.54106
O          O       0.42180   0.04706   0.45013  -0.54784
O          O       0.54183   0.05103   0.45837  -0.55796
O          O       0.57240   0.32055   0.28687  -0.53841
O          O       0.02747   0.90288   0.44930  -0.54920
O          O       0.91607   0.90787   0.45813  -0.55961
O          O       0.71394   0.46498   0.28721  -0.54200
O          O       0.90275   0.02763   0.94970  -0.54937
O          O       0.90785   0.91572   0.95774  -0.55820
O          O       0.46520   0.71406   0.78747  -0.54396
O          O       0.04636   0.42150   0.94972  -0.54652
O          O       0.05072   0.54161   0.95793  -0.55614
O          O       0.32076   0.57233   0.78709  -0.53944
O          O       0.42140   0.90279   0.44954  -0.54883
O          O       0.54150   0.90756   0.45809  -0.55900
O          O       0.57198   0.46463   0.28694  -0.54033
O          O       0.02765   0.04701   0.45013  -0.55013
O          O       0.91591   0.05107   0.45846  -0.55815
O          O       0.71358   0.32059   0.28700  -0.53965
O          O       0.09730   0.57867   0.05039  -0.54804
O          O       0.09253   0.45862   0.04220  -0.55933
O          O       0.53510   0.42806   0.21259  -0.54052
O          O       0.95357   0.97240   0.05022  -0.54868
O          O       0.94926   0.08426   0.04199  -0.55519
O          O       0.67925   0.28621   0.21266  -0.54096
O          O       0.57820   0.95293   0.54986  -0.54783
O          O       0.45817   0.94897   0.54163  -0.55805
O          O       0.42760   0.67945   0.71313  -0.53827
O          O       0.97253   0.09712   0.55070  -0.54926
O          O       0.08393   0.09212   0.54187  -0.55949
O          O       0.28606   0.53502   0.71279  -0.54185

