data_crystal

_audit_creation_method 'AiiDA-DDEC plugin'

_cell_length_a        13.10510
_cell_length_b        19.86511
_cell_length_c        20.77506

_cell_angle_alpha     90.01027
_cell_angle_beta     103.22183
_cell_angle_gamma     90.04352

_symmetry_space_group_name_Hall 'P 1'
_symmetry_space_group_name_H-M  'P 1'

loop_
_symmetry_equiv_pos_as_xyz
 'x,y,z'

loop_
_atom_site_label
_atom_site_type_symbol
_atom_site_fract_x
_atom_site_fract_y
_atom_site_fract_z
_atom_site_charge
Cu         Cu      0.06074   0.41920   0.61613   0.26375
Cu         Cu      0.11580   0.36984   0.73288   0.28490
Cu         Cu      0.00361   0.26988   0.67809   0.25936
Cu         Cu      0.90302   0.33896   0.58121   0.27946
Cu         Cu      0.57535   0.22102   0.79953   0.58697
Cu         Cu      0.43711   0.92063   0.88293   0.26557
Cu         Cu      0.38347   0.86950   0.76747   0.28301
Cu         Cu      0.49290   0.76747   0.82009   0.26496
Cu         Cu      0.59194   0.83935   0.91614   0.27554
Cu         Cu      0.92385   0.72030   0.70179   0.58445
Cu         Cu      0.93927   0.58081   0.38387   0.26373
Cu         Cu      0.88421   0.63016   0.26712   0.28481
Cu         Cu      0.99640   0.73013   0.32191   0.25942
Cu         Cu      0.09699   0.66104   0.41879   0.27939
Cu         Cu      0.42465   0.77898   0.20047   0.58702
Cu         Cu      0.56289   0.07938   0.11707   0.26552
Cu         Cu      0.61654   0.13051   0.23253   0.28294
Cu         Cu      0.50710   0.23253   0.17991   0.26508
Cu         Cu      0.40806   0.16065   0.08386   0.27546
Cu         Cu      0.07616   0.27971   0.29821   0.58448
H          H       0.23018   0.14985   0.49831   0.11700
H          H       0.27576   0.12022   0.61898   0.12575
H          H       0.41499   0.27913   0.55568   0.11380
H          H       0.28739   0.34258   0.46728   0.13279
H          H       0.66432   0.52497   0.70268   0.11977
H          H       0.59486   0.40845   0.67086   0.13423
H          H       0.76925   0.44462   0.84721   0.11759
H          H       0.91629   0.52642   0.84781   0.13065
H          H       0.11166   0.46690   0.49851   0.14605
H          H       0.13793   0.41335   0.43550   0.14788
H          H       0.03933   0.39127   0.47755   0.15308
H          H       0.15909   0.11491   0.72270   0.15067
H          H       0.26636   0.17230   0.73480   0.16062
H          H       0.14027   0.20099   0.74116   0.13341
H          H       0.66303   0.28517   0.65136   0.15692
H          H       0.61663   0.31524   0.56912   0.14397
H          H       0.74598   0.28181   0.59426   0.13079
H          H       0.16492   0.48241   0.81980   0.14322
H          H       0.08865   0.51639   0.74499   0.15198
H          H       0.07968   0.55264   0.82182   0.14692
H          H       0.26824   0.64876   0.00161   0.11821
H          H       0.22041   0.61907   0.88104   0.12686
H          H       0.08606   0.77906   0.94610   0.11414
H          H       0.21493   0.84254   0.03404   0.13321
H          H       0.83583   0.02513   0.79748   0.12036
H          H       0.90272   0.90816   0.82901   0.13341
H          H       0.73021   0.94328   0.65298   0.11675
H          H       0.58410   0.02554   0.65212   0.12998
H          H       0.38972   0.96715   0.00170   0.14501
H          H       0.36433   0.91356   0.06506   0.14710
H          H       0.46189   0.89128   0.02218   0.15284
H          H       0.33641   0.61279   0.77602   0.15097
H          H       0.22941   0.67007   0.76427   0.16033
H          H       0.35526   0.69887   0.75760   0.13418
H          H       0.83274   0.78555   0.84793   0.15674
H          H       0.87961   0.81552   0.93011   0.14522
H          H       0.75012   0.78222   0.90513   0.13188
H          H       0.33504   0.98279   0.68006   0.14176
H          H       0.41134   0.01684   0.75487   0.15221
H          H       0.42125   0.05257   0.67804   0.14779
H          H       0.76983   0.85015   0.50169   0.11698
H          H       0.72424   0.87979   0.38102   0.12807
H          H       0.58502   0.72087   0.44432   0.11377
H          H       0.71262   0.65742   0.53272   0.13282
H          H       0.33569   0.47504   0.29732   0.11980
H          H       0.40515   0.59155   0.32914   0.13441
H          H       0.23076   0.55539   0.15279   0.11769
H          H       0.08371   0.47359   0.15219   0.13054
H          H       0.88835   0.53310   0.50149   0.14588
H          H       0.86208   0.58665   0.56450   0.14776
H          H       0.96068   0.60873   0.52246   0.15326
H          H       0.84092   0.88510   0.27730   0.15095
H          H       0.73365   0.82771   0.26520   0.16042
H          H       0.85974   0.79902   0.25884   0.13342
H          H       0.33698   0.71483   0.34864   0.15701
H          H       0.38337   0.68477   0.43088   0.14404
H          H       0.25402   0.71820   0.40574   0.13081
H          H       0.83508   0.51759   0.18020   0.14309
H          H       0.91135   0.48362   0.25501   0.15191
H          H       0.92032   0.44737   0.17818   0.14678
H          H       0.73177   0.35124  -0.00161   0.11830
H          H       0.77959   0.38094   0.11896   0.12709
H          H       0.91394   0.22094   0.05390   0.11430
H          H       0.78508   0.15746   0.96596   0.13318
H          H       0.16418   0.97487   0.20252   0.12026
H          H       0.09728   0.09184   0.17099   0.13326
H          H       0.26980   0.05672   0.34702   0.11661
H          H       0.41591   0.97447   0.34788   0.12984
H          H       0.61029   0.03285   0.99830   0.14488
H          H       0.63567   0.08644   0.93494   0.14711
H          H       0.53812   0.10872   0.97783   0.15271
H          H       0.66359   0.38722   0.22398   0.15112
H          H       0.77060   0.32994   0.23573   0.16047
H          H       0.64474   0.30113   0.24240   0.13397
H          H       0.16727   0.21445   0.15207   0.15676
H          H       0.12040   0.18449   0.06989   0.14505
H          H       0.24988   0.21779   0.09487   0.13205
H          H       0.66496   0.01721   0.31994   0.14206
H          H       0.58866   0.98316   0.24513   0.15209
H          H       0.57876   0.94743   0.32196   0.14750
C          C       0.24955   0.34395   0.64739   0.44075
C          C       0.33549   0.30765   0.63211  -0.13758
C          C       0.34989   0.30706   0.56697  -0.07550
C          C       0.27964   0.34230   0.51825  -0.23462
C          C       0.19606   0.37662   0.53424   0.31967
C          C       0.40071   0.27166   0.68359   0.31182
C          C       0.11750   0.41412   0.48367  -0.46578
C          C       0.04398   0.24220   0.55249   0.44012
C          C       0.10204   0.21484   0.50807  -0.13449
C          C       0.18609   0.17053   0.53212  -0.06871
C          C       0.21142   0.15430   0.59901  -0.24288
C          C       0.15527   0.18292   0.64159   0.31689
C          C       0.57740   0.26525   0.94278   0.31545
C          C       0.18171   0.16691   0.71405  -0.44859
C          C       0.86415   0.46129   0.63849   0.43527
C          C       0.80566   0.50827   0.66786  -0.14138
C          C       0.70775   0.48931   0.67962  -0.07249
C          C       0.66932   0.42510   0.66173  -0.23780
C          C       0.72673   0.38078   0.63175   0.31614
C          C       0.65063   0.07297   0.81323   0.31089
C          C       0.68598   0.31187   0.61048  -0.44869
C          C       0.92500   0.34995   0.76910   0.44147
C          C       0.83887   0.36729   0.79759  -0.13595
C          C       0.83566   0.43110   0.82670  -0.07961
C          C       0.91732   0.47623   0.82722  -0.24195
C          C       0.00070   0.45785   0.79976   0.31093
C          C       0.75708   0.32040   0.79213   0.31013
C          C       0.08858   0.50506   0.79689  -0.46620
C          C       0.25035   0.84354   0.85342   0.44103
C          C       0.16458   0.80736   0.86915  -0.13911
C          C       0.15094   0.80698   0.93445  -0.07278
C          C       0.22178   0.84226   0.98290  -0.23597
C          C       0.30472   0.87688   0.96637   0.32145
C          C       0.09861   0.77132   0.81795   0.31232
C          C       0.38399   0.91437   0.01664  -0.46383
C          C       0.45273   0.74094   0.94569   0.43898
C          C       0.39615   0.71339   0.99085  -0.13159
C          C       0.31193   0.66906   0.96738  -0.07188
C          C       0.28551   0.65274   0.90049  -0.24516
C          C       0.34110   0.68086   0.85732   0.31777
C          C       0.92336   0.76403   0.55837   0.31803
C          C       0.31405   0.66476   0.78486  -0.44869
C          C       0.63298   0.96215   0.85963   0.43481
C          C       0.69306   0.00897   0.83112  -0.13999
C          C       0.79121   0.98966   0.81999  -0.07418
C          C       0.82844   0.92528   0.83796  -0.23630
C          C       0.76991   0.88121   0.86744   0.31517
C          C       0.84948   0.57185   0.68637   0.31042
C          C       0.81010   0.81228   0.88888  -0.45167
C          C       0.57254   0.84899   0.73020   0.44109
C          C       0.65928   0.86609   0.70218  -0.13670
C          C       0.66354   0.92994   0.67333  -0.07773
C          C       0.58242   0.97540   0.67271  -0.24130
C          C       0.49889   0.95754   0.70029   0.31018
C          C       0.74074   0.81896   0.70789   0.31240
C          C       0.41160   0.00519   0.70306  -0.46626
C          C       0.75045   0.65605   0.35261   0.44063
C          C       0.66452   0.69235   0.36789  -0.13758
C          C       0.65011   0.69294   0.43303  -0.07553
C          C       0.72037   0.65770   0.48175  -0.23478
C          C       0.80395   0.62338   0.46576   0.31954
C          C       0.59930   0.72834   0.31641   0.31183
C          C       0.88251   0.58588   0.51633  -0.46560
C          C       0.95603   0.75780   0.44751   0.44009
C          C       0.89797   0.78516   0.49193  -0.13426
C          C       0.81391   0.82947   0.46788  -0.06892
C          C       0.78859   0.84570   0.40099  -0.24480
C          C       0.84473   0.81708   0.35841   0.31687
C          C       0.42261   0.73475   0.05722   0.31530
C          C       0.81830   0.83309   0.28595  -0.44877
C          C       0.13586   0.53871   0.36151   0.43560
C          C       0.19435   0.49173   0.33215  -0.14143
C          C       0.29225   0.51070   0.32038  -0.07285
C          C       0.33068   0.57490   0.33827  -0.23745
C          C       0.27327   0.61922   0.36825   0.31628
C          C       0.34938   0.92704   0.18677   0.31092
C          C       0.31403   0.68814   0.38952  -0.44865
C          C       0.07501   0.65005   0.23090   0.44125
C          C       0.16113   0.63271   0.20241  -0.13600
C          C       0.16435   0.56890   0.17330  -0.07957
C          C       0.08269   0.52378   0.17278  -0.24206
C          C      -0.00070   0.54216   0.20024   0.31086
C          C       0.24293   0.67961   0.20787   0.30994
C          C       0.91143   0.49494   0.20311  -0.46614
C          C       0.74966   0.15646   0.14658   0.44087
C          C       0.83543   0.19264   0.13085  -0.13930
C          C       0.84906   0.19303   0.06555  -0.07241
C          C       0.77823   0.15774   0.01710  -0.23592
C          C       0.69529   0.12313   0.03363   0.32143
C          C       0.90139   0.22868   0.18205   0.31231
C          C       0.61602   0.08564   0.98336  -0.46382
C          C       0.54727   0.25907   0.05431   0.43906
C          C       0.60386   0.28661   0.00915  -0.13148
C          C       0.68808   0.33095   0.03262  -0.07182
C          C       0.71450   0.34726   0.09951  -0.24506
C          C       0.65890   0.31914   0.14268   0.31779
C          C       0.07665   0.23597   0.44163   0.31806
C          C       0.68595   0.33525   0.21514  -0.44869
C          C       0.36702   0.03785   0.14037   0.43470
C          C       0.30695   0.99103   0.16888  -0.13990
C          C       0.20879   0.01034   0.18001  -0.07454
C          C       0.17156   0.07473   0.16204  -0.23620
C          C       0.23009   0.11879   0.13256   0.31515
C          C       0.15052   0.42815   0.31363   0.31054
C          C       0.18990   0.18773   0.11112  -0.45160
C          C       0.42746   0.15102   0.26980   0.44082
C          C       0.34072   0.13391   0.29782  -0.13642
C          C       0.33646   0.07006   0.32667  -0.07796
C          C       0.41759   0.02460   0.32729  -0.24129
C          C       0.50112   0.04247   0.29971   0.31008
C          C       0.25927   0.18104   0.29211   0.31230
C          C       0.58841   0.99482   0.29694  -0.46621
N          N       0.45455   0.24105   0.72657  -0.43321
N          N       0.18176   0.37746   0.59776  -0.37280
N          N       0.55916   0.24775   0.88740  -0.41437
N          N       0.07299   0.22587   0.61849  -0.36742
N          N       0.61717   0.12710   0.79897  -0.43351
N          N       0.82163   0.39922   0.61958  -0.36892
N          N       0.68765   0.28202   0.78720  -0.42509
N          N       0.00502   0.39523   0.77236  -0.37356
N          N       0.04401   0.74088   0.77513  -0.43228
N          N       0.31795   0.87778   0.90264  -0.37339
N          N       0.94076   0.74678   0.61381  -0.41633
N          N       0.42352   0.72390   0.87990  -0.36555
N          N       0.88359   0.62573   0.70146  -0.43176
N          N       0.67449   0.89987   0.87870  -0.36981
N          N       0.80999   0.78052   0.71308  -0.42684
N          N       0.49367   0.89491   0.72752  -0.37203
N          N       0.54546   0.75895   0.27343  -0.43316
N          N       0.81824   0.62255   0.40224  -0.37277
N          N       0.44085   0.75226   0.11260  -0.41413
N          N       0.92702   0.77413   0.38151  -0.36741
N          N       0.38284   0.87291   0.20103  -0.43369
N          N       0.17838   0.60078   0.38042  -0.36906
N          N       0.31236   0.71798   0.21280  -0.42477
N          N       0.99499   0.60477   0.22764  -0.37351
N          N       0.95599   0.25912   0.22487  -0.43219
N          N       0.68205   0.12222   0.09736  -0.37347
N          N       0.05925   0.25322   0.38619  -0.41634
N          N       0.57649   0.27611   0.12010  -0.36577
N          N       0.11641   0.37427   0.29854  -0.43195
N          N       0.32551   0.10013   0.12130  -0.36958
N          N       0.19001   0.21949   0.28692  -0.42676
N          N       0.50633   0.10510   0.27249  -0.37173
O          O       0.23747   0.34360   0.70746  -0.46906
O          O       0.96561   0.28184   0.52990  -0.47184
O          O       0.95550   0.47802   0.62994  -0.46924
O          O       0.92512   0.29238   0.74023  -0.47176
O          O       0.26254   0.84242   0.79341  -0.46950
O          O       0.53021   0.78143   0.96748  -0.47129
O          O       0.54117   0.97936   0.86715  -0.46812
O          O       0.57067   0.79088   0.75788  -0.47432
O          O       0.76253   0.65641   0.29254  -0.46901
O          O       0.03439   0.71816   0.47010  -0.47167
O          O       0.04450   0.52199   0.37006  -0.46970
O          O       0.07489   0.70762   0.25977  -0.47129
O          O       0.73747   0.15758   0.20659  -0.46927
O          O       0.46979   0.21857   0.03252  -0.47150
O          O       0.45884   0.02065   0.13285  -0.46807
O          O       0.42934   0.20912   0.24212  -0.47409

