data_crystal

_audit_creation_method 'AiiDA-DDEC plugin'

_cell_length_a        10.21290
_cell_length_b        10.65640
_cell_length_c        28.21217

_cell_angle_alpha     89.82429
_cell_angle_beta     89.84789
_cell_angle_gamma     103.72036

_symmetry_space_group_name_Hall 'P 1'
_symmetry_space_group_name_H-M  'P 1'

loop_
_symmetry_equiv_pos_as_xyz
 'x,y,z'

loop_
_atom_site_label
_atom_site_type_symbol
_atom_site_fract_x
_atom_site_fract_y
_atom_site_fract_z
_atom_site_charge
Cd         Cd      0.06169   0.94241   0.30508   0.95803
Cd         Cd      0.08365   0.10794   0.41267   0.98840
Cd         Cd      0.44133   0.55762   0.80428   0.96067
Cd         Cd      0.41690   0.39001   0.91248   0.98768
Cd         Cd      0.93831   0.05759   0.69492   0.95800
Cd         Cd      0.91635   0.89207   0.58732   0.98848
Cd         Cd      0.55867   0.44239   0.19571   0.96060
Cd         Cd      0.58310   0.60999   0.08752   0.98762
H          H       0.53971   0.27917   0.37733   0.11774
H          H       0.78873   0.24489   0.37860   0.13062
H          H       0.79705   0.42732   0.48651   0.12109
H          H       0.80430   0.67792   0.47524   0.12597
H          H       0.81777   0.85909   0.23235   0.10663
H          H       0.75650   0.92629   0.15197   0.14152
H          H       0.17480   0.12375   0.13297   0.12793
H          H       0.22057   0.04198   0.21285   0.10423
H          H       0.00463   0.09870   0.06481   0.09597
H          H       0.82974   0.04025   0.07713   0.09852
H          H       0.00734   0.28643   0.12079   0.07755
H          H       0.83174   0.23291   0.12747   0.09785
H          H       0.80302   0.26573   0.03951   0.10196
H          H       0.87810   0.40802   0.07073   0.11163
H          H       0.93663   0.17281   0.98089   0.12025
H          H       0.14543   0.21010   0.93123   0.09541
H          H       0.32568   0.53676   0.00783   0.10820
H          H       0.12825   0.50961   0.06166   0.12308
H          H       0.96081   0.22217   0.87924   0.11843
H          H       0.71204   0.25722   0.87989   0.13025
H          H       0.70134   0.06994   0.98600   0.12191
H          H       0.69585   0.81985   0.97408   0.12447
H          H       0.68200   0.64184   0.73018   0.10646
H          H       0.74291   0.57547   0.64976   0.14067
H          H       0.32464   0.37747   0.63217   0.12812
H          H       0.27942   0.45792   0.71223   0.10477
H          H       0.49478   0.40275   0.56346   0.09562
H          H       0.66962   0.46183   0.57530   0.09793
H          H       0.49304   0.21572   0.62022   0.07755
H          H       0.66860   0.26977   0.62621   0.09734
H          H       0.69707   0.23559   0.53842   0.10385
H          H       0.62233   0.09388   0.57045   0.11235
H          H       0.56301   0.32732   0.47955   0.11986
H          H       0.35513   0.28743   0.42989   0.09407
H          H       0.17584   0.96164   0.50825   0.10820
H          H       0.37244   0.99102   0.56200   0.12334
H          H       0.46029   0.72083   0.62267   0.11777
H          H       0.21127   0.75511   0.62140   0.13058
H          H       0.20295   0.57268   0.51349   0.12121
H          H       0.19570   0.32209   0.52475   0.12601
H          H       0.18223   0.14092   0.76764   0.10676
H          H       0.24350   0.07371   0.84803   0.14153
H          H       0.82520   0.87625   0.86703   0.12776
H          H       0.77943   0.95803   0.78715   0.10434
H          H       0.99537   0.90131   0.93519   0.09572
H          H       0.17026   0.95975   0.92287   0.09843
H          H       0.99266   0.71358   0.87921   0.07761
H          H       0.16826   0.76709   0.87253   0.09796
H          H       0.19698   0.73427   0.96049   0.10186
H          H       0.12190   0.59199   0.92927   0.11165
H          H       0.06337   0.82720   0.01911   0.12020
H          H       0.85457   0.78990   0.06877   0.09541
H          H       0.67432   0.46324   0.99216   0.10812
H          H       0.87175   0.49039   0.93834   0.12330
H          H       0.03919   0.77783   0.12075   0.11869
H          H       0.28796   0.74279   0.12010   0.13036
H          H       0.29866   0.93006   0.01400   0.12196
H          H       0.30415   0.18016   0.02591   0.12462
H          H       0.31800   0.35816   0.26982   0.10645
H          H       0.25709   0.42454   0.35024   0.14057
H          H       0.67536   0.62253   0.36783   0.12799
H          H       0.72058   0.54209   0.28777   0.10478
H          H       0.50522   0.59726   0.43653   0.09539
H          H       0.33038   0.53818   0.42469   0.09762
H          H       0.50696   0.78428   0.37977   0.07770
H          H       0.33140   0.73024   0.37379   0.09763
H          H       0.30293   0.76442   0.46158   0.10357
H          H       0.37767   0.90612   0.42955   0.11248
H          H       0.43699   0.67268   0.52044   0.11972
H          H       0.64487   0.71257   0.57010   0.09360
H          H       0.82416   0.03836   0.49175   0.10827
H          H       0.62756   0.00899   0.43800   0.12356
C          C       0.48210   0.10116   0.33711  -0.12668
C          C       0.57086   0.19842   0.36137  -0.12726
C          C       0.70340   0.18090   0.36165  -0.10040
C          C       0.71323   0.06826   0.33864  -0.13378
C          C       0.33545   0.08207   0.33048   0.58048
C          C       0.83205   0.01557   0.33136   0.57340
C          C       0.95885   0.45313   0.43477  -0.12112
C          C       0.86274   0.49259   0.46214  -0.12488
C          C       0.86714   0.62536   0.45634  -0.10764
C          C       0.96501   0.68460   0.42381  -0.13074
C          C       0.99489   0.32701   0.43289   0.55327
C          C       0.00868   0.82028   0.40853   0.58013
C          C       0.89376   0.91592   0.20880   0.09678
C          C       0.86012   0.95592   0.16444  -0.17500
C          C       0.96001   0.03506   0.13639   0.17340
C          C       0.09273   0.06413   0.15357  -0.18420
C          C       0.11937   0.01967   0.19800   0.08773
C          C       0.92563   0.09647   0.09154  -0.21918
C          C       0.91528   0.23573   0.10253  -0.14661
C          C       0.89443   0.31502   0.05856  -0.20872
C          C       0.01449   0.33800   0.02599   0.17071
C          C       0.02136   0.25358   0.98851  -0.20191
C          C       0.13660   0.27375   0.96052   0.08299
C          C       0.23864   0.45614   0.00329   0.10717
C          C       0.12702   0.44063   0.03315  -0.17759
C          C       0.01942   0.39803   0.83729  -0.12611
C          C       0.93000   0.30202   0.86231  -0.12643
C          C       0.79765   0.31994   0.86230  -0.10053
C          C       0.78806   0.43105   0.83798  -0.13347
C          C       0.16644   0.41585   0.83127   0.58380
C          C       0.66831   0.48187   0.83045   0.57333
C          C       0.53965   0.04454   0.93456  -0.12220
C          C       0.63612   0.00506   0.96163  -0.12376
C          C       0.63278   0.87269   0.95546  -0.10686
C          C       0.53535   0.81407   0.92298  -0.13191
C          C       0.50172   0.16971   0.93280   0.55161
C          C       0.49197   0.67870   0.90773   0.57990
C          C       0.60589   0.58504   0.70695   0.09745
C          C       0.63933   0.54554   0.66252  -0.17475
C          C       0.53938   0.46659   0.63484   0.17015
C          C       0.40676   0.43709   0.65246  -0.18283
C          C       0.38042   0.48089   0.69699   0.08717
C          C       0.57385   0.40536   0.59004  -0.21852
C          C       0.58481   0.26639   0.60150  -0.14513
C          C       0.60571   0.18654   0.55784  -0.21284
C          C       0.48574   0.16256   0.52549   0.17297
C          C       0.47872   0.24618   0.48758  -0.20047
C          C       0.36396   0.22462   0.45958   0.08220
C          C       0.26243   0.04264   0.50329   0.10684
C          C       0.37366   0.05947   0.53314  -0.17789
C          C       0.51790   0.89884   0.66289  -0.12680
C          C       0.42914   0.80158   0.63863  -0.12723
C          C       0.29660   0.81910   0.63834  -0.10037
C          C       0.28677   0.93174   0.66135  -0.13368
C          C       0.66455   0.91794   0.66952   0.58070
C          C       0.16795   0.98444   0.66864   0.57329
C          C       0.04115   0.54688   0.56522  -0.12098
C          C       0.13726   0.50741   0.53786  -0.12468
C          C       0.13286   0.37465   0.54366  -0.10775
C          C       0.03499   0.31541   0.57619  -0.13072
C          C       0.00511   0.67299   0.56711   0.55325
C          C       0.99132   0.17972   0.59147   0.58008
C          C       0.10624   0.08409   0.79120   0.09702
C          C       0.13988   0.04409   0.83555  -0.17529
C          C       0.03999   0.96495   0.86361   0.17359
C          C       0.90727   0.93587   0.84643  -0.18439
C          C       0.88063   0.98034   0.80199   0.08767
C          C       0.07437   0.90353   0.90846  -0.21916
C          C       0.08472   0.76428   0.89747  -0.14644
C          C       0.10557   0.68498   0.94144  -0.20893
C          C       0.98551   0.66200   0.97400   0.17074
C          C       0.97864   0.74642   0.01149  -0.20168
C          C       0.86340   0.72626   0.03948   0.08284
C          C       0.76136   0.54386   0.99670   0.10735
C          C       0.87298   0.55938   0.96685  -0.17777
C          C       0.98058   0.60198   0.16270  -0.12619
C          C       0.07000   0.69798   0.13769  -0.12621
C          C       0.20235   0.68007   0.13769  -0.10042
C          C       0.21194   0.56896   0.16201  -0.13346
C          C       0.83356   0.58415   0.16872   0.58356
C          C       0.33169   0.51814   0.16954   0.57326
C          C       0.46035   0.95546   0.06544  -0.12241
C          C       0.36388   0.99495   0.03837  -0.12360
C          C       0.36722   0.12732   0.04454  -0.10673
C          C       0.46465   0.18594   0.07701  -0.13189
C          C       0.49829   0.83030   0.06720   0.55161
C          C       0.50803   0.32131   0.09226   0.57965
C          C       0.39411   0.41496   0.29305   0.09762
C          C       0.36067   0.45446   0.33747  -0.17482
C          C       0.46062   0.53342   0.36515   0.17005
C          C       0.59324   0.56291   0.34754  -0.18263
C          C       0.61958   0.51912   0.30300   0.08713
C          C       0.42615   0.59465   0.40996  -0.21836
C          C       0.41519   0.73362   0.39850  -0.14529
C          C       0.39429   0.81347   0.44215  -0.21258
C          C       0.51426   0.83744   0.47450   0.17306
C          C       0.52128   0.75383   0.51242  -0.20053
C          C       0.63604   0.77539   0.54042   0.08233
C          C       0.73757   0.95736   0.49671   0.10719
C          C       0.62634   0.94054   0.46686  -0.17788
S          S       0.56092   0.98748   0.31481   0.20534
S          S       0.05125   0.57757   0.40071   0.19777
S          S       0.94095   0.51068   0.81363   0.20369
S          S       0.44835   0.92096   0.90035   0.19736
S          S       0.43908   0.01252   0.68519   0.20522
S          S       0.94875   0.42243   0.59928   0.19742
S          S       0.05905   0.48933   0.18637   0.20322
S          S       0.55165   0.07904   0.09965   0.19711
N          N       0.02089   0.94867   0.22584  -0.27197
N          N       0.24377   0.37380   0.96744  -0.26759
N          N       0.47898   0.55183   0.72446  -0.27226
N          N       0.25731   0.12407   0.46694  -0.26805
N          N       0.97911   0.05134   0.77416  -0.27161
N          N       0.75623   0.62620   0.03256  -0.26780
N          N       0.52102   0.44817   0.27554  -0.27210
N          N       0.74269   0.87594   0.53306  -0.26839
O          O       0.28436   0.00097   0.29768  -0.56191
O          O       0.27171   0.14298   0.35687  -0.58165
O          O       0.81728   0.90245   0.31447  -0.55644
O          O       0.94987   0.08873   0.34038  -0.58766
O          O       0.10366   0.32546   0.40951  -0.56904
O          O       0.92084   0.22839   0.45246  -0.55441
O          O       0.09275   0.84313   0.37375  -0.59759
O          O       0.96616   0.90608   0.43118  -0.52813
O          O       0.21985   0.49401   0.79764  -0.56458
O          O       0.22784   0.35641   0.85907  -0.57935
O          O       0.68177   0.59417   0.81249  -0.55471
O          O       0.55128   0.40806   0.84039  -0.58740
O          O       0.39290   0.16994   0.90954  -0.56875
O          O       0.57454   0.26887   0.95223  -0.55368
O          O       0.40908   0.65644   0.87279  -0.59868
O          O       0.53335   0.59282   0.93086  -0.52841
O          O       0.71564  -0.00097   0.70231  -0.56221
O          O       0.72829   0.85702   0.64313  -0.58159
O          O       0.18272   0.09756   0.68553  -0.55633
O          O       0.05013   0.91128   0.65962  -0.58773
O          O       0.89634   0.67455   0.59048  -0.56925
O          O       0.07916   0.77162   0.54754  -0.55413
O          O       0.90725   0.15688   0.62625  -0.59773
O          O       0.03384   0.09393   0.56881  -0.52795
O          O       0.78015   0.50600   0.20236  -0.56486
O          O       0.77216   0.64360   0.14092  -0.57892
O          O       0.31823   0.40583   0.18750  -0.55494
O          O       0.44872   0.59195   0.15961  -0.58724
O          O       0.60710   0.83007   0.09046  -0.56892
O          O       0.42546   0.73114   0.04776  -0.55360
O          O       0.59092   0.34357   0.12721  -0.59876
O          O       0.46665   0.40719   0.06913  -0.52797

