data_crystal

_audit_creation_method 'AiiDA-DDEC plugin'

_cell_length_a         9.61442
_cell_length_b        21.91738
_cell_length_c        21.94490

_cell_angle_alpha     87.19728
_cell_angle_beta     77.15004
_cell_angle_gamma     77.17811

_symmetry_space_group_name_Hall 'P 1'
_symmetry_space_group_name_H-M  'P 1'

loop_
_symmetry_equiv_pos_as_xyz
 'x,y,z'

loop_
_atom_site_label
_atom_site_type_symbol
_atom_site_fract_x
_atom_site_fract_y
_atom_site_fract_z
_atom_site_charge
Mn         Mn      0.49620   0.43218   0.52592   1.01333
Mn         Mn      0.45657   0.06770   0.97397   1.01147
Mn         Mn      0.43122   0.52573   0.06782   1.01077
Mn         Mn      0.02292   0.97406   0.43244   1.01203
Mn         Mn      0.50379   0.56782   0.47408   1.01322
Mn         Mn      0.54342   0.93230   0.02603   1.01117
Mn         Mn      0.56877   0.47427   0.93218   1.01079
Mn         Mn      0.97708   0.02594   0.56756   1.01188
H          H       0.49967   0.35100   0.25503   0.12212
H          H       0.40665   0.29089   0.28902   0.08874
H          H       0.30404   0.36740   0.27551   0.10204
H          H       0.18189   0.31124   0.35110   0.11148
H          H       0.00385   0.29334   0.44768   0.10623
H          H       0.03534   0.32307   0.55042   0.09336
H          H       0.16099   0.36228   0.61387   0.10726
H          H       0.35143   0.37689   0.76227   0.12650
H          H       0.39600   0.39850   0.86735   0.09237
H          H       0.60861   0.53867   0.79482   0.08727
H          H       0.57436   0.52300   0.68596   0.13925
H          H       0.84172   0.49594   0.45738   0.09534
H          H       0.78128   0.47682   0.53750   0.09287
H          H       0.84536   0.41642   0.47916   0.08423
H          H       0.10763   0.14918   0.24588   0.12234
H          H       0.98734   0.20920   0.21229   0.08910
H          H       0.94964   0.13253   0.22546   0.10364
H          H       0.84570   0.18896   0.15048   0.11051
H          H       0.74551   0.20639   0.05443   0.10723
H          H       0.90985   0.17617   0.95121   0.09444
H          H       0.13695   0.13709   0.88761   0.10722
H          H       0.49133   0.12306   0.73899   0.12530
H          H       0.66156   0.10170   0.63287   0.09397
H          H       0.94460   0.96083   0.70364   0.08666
H          H       0.78741   0.97670   0.81324   0.13836
H          H       0.79555   0.00323   0.04248   0.09530
H          H       0.79726   0.02257   0.96239   0.09258
H          H       0.74176   0.08289   0.02085   0.08453
H          H       0.36137   0.25466   0.14809   0.12163
H          H       0.20625   0.28709   0.20831   0.08936
H          H       0.18261   0.27386   0.13160   0.10387
H          H       0.00027   0.34923   0.18900   0.11192
H          H       0.80167   0.44520   0.20582   0.10601
H          H       0.86010   0.54856   0.17612   0.09365
H          H       0.02458   0.61311   0.13737   0.10773
H          H       0.23062   0.76158   0.12312   0.12590
H          H       0.29469   0.86728   0.10151   0.09365
H          H       0.64911   0.79561   0.96092   0.08733
H          H       0.60153   0.68626   0.97670   0.13913
H          H       0.83936   0.45668   0.00279   0.09459
H          H       0.75928   0.53686   0.02179   0.09195
H          H       0.76431   0.47879   0.08233   0.08361
H          H       0.76197   0.24571   0.35145   0.12211
H          H       0.70082   0.21311   0.29134   0.08905
H          H       0.58564   0.22679   0.36789   0.10416
H          H       0.53673   0.15116   0.31087   0.11048
H          H       0.45304   0.05534   0.29345   0.10600
H          H       0.58473   0.95198   0.32364   0.09528
H          H       0.77404   0.88759   0.36271   0.10934
H          H       0.11493   0.73777   0.37727   0.12668
H          H       0.26509   0.63235   0.39901   0.09342
H          H       0.40438   0.70484   0.53908   0.08759
H          H       0.26040   0.81395   0.52326   0.13883
H          H       0.29922   0.04205   0.49622   0.09559
H          H       0.31964   0.96188   0.47703   0.09275
H          H       0.32556   0.02021   0.41668   0.08475
H          H       0.50032   0.64900   0.74497   0.12220
H          H       0.59335   0.70911   0.71098   0.08849
H          H       0.69596   0.63260   0.72448   0.10190
H          H       0.81811   0.68876   0.64889   0.11109
H          H       0.99614   0.70666   0.55232   0.10604
H          H       0.96465   0.67693   0.44957   0.09335
H          H       0.83901   0.63772   0.38612   0.10727
H          H       0.64857   0.62311   0.23773   0.12626
H          H       0.60400   0.60150   0.13264   0.09229
H          H       0.39139   0.46132   0.20518   0.08751
H          H       0.42563   0.47700   0.31404   0.13935
H          H       0.15827   0.50406   0.54262   0.09537
H          H       0.21872   0.52318   0.46250   0.09315
H          H       0.15463   0.58358   0.52083   0.08406
H          H       0.89236   0.85082   0.75411   0.12251
H          H       0.01266   0.79080   0.78770   0.08920
H          H       0.05035   0.86747   0.77454   0.10336
H          H       0.15430   0.81104   0.84952   0.11064
H          H       0.25448   0.79361   0.94557   0.10708
H          H       0.09015   0.82383   0.04879   0.09432
H          H       0.86304   0.86290   0.11239   0.10712
H          H       0.50866   0.87694   0.26101   0.12525
H          H       0.33844   0.89830   0.36713   0.09392
H          H       0.05539   0.03917   0.29636   0.08664
H          H       0.21258   0.02330   0.18675   0.13844
H          H       0.20445   0.99676   0.95752   0.09545
H          H       0.20274   0.97742   0.03761   0.09239
H          H       0.25824   0.91710   0.97915   0.08470
H          H       0.63862   0.74534   0.85191   0.12172
H          H       0.79374   0.71291   0.79169   0.08945
H          H       0.81738   0.72613   0.86839   0.10369
H          H      -0.00027   0.65076   0.81099   0.11172
H          H       0.19832   0.55480   0.79418   0.10580
H          H       0.13990   0.45144   0.82388   0.09344
H          H       0.97541   0.38688   0.86263   0.10773
H          H       0.76937   0.23841   0.87688   0.12586
H          H       0.70531   0.13272   0.89848   0.09385
H          H       0.35088   0.20439   0.03908   0.08734
H          H       0.39847   0.31374   0.02330   0.13905
H          H       0.16064   0.54332   0.99721   0.09452
H          H       0.24071   0.46313   0.97821   0.09210
H          H       0.23569   0.52120   0.91767   0.08376
H          H       0.23802   0.75429   0.64855   0.12238
H          H       0.29917   0.78688   0.70866   0.08891
H          H       0.41435   0.77320   0.63210   0.10412
H          H       0.46326   0.84883   0.68913   0.11049
H          H       0.54696   0.94465   0.70655   0.10582
H          H       0.41526   0.04801   0.67636   0.09497
H          H       0.22595   0.11241   0.63729   0.10891
H          H       0.88506   0.26222   0.62273   0.12652
H          H       0.73490   0.36764   0.60099   0.09323
H          H       0.59562   0.29516   0.46091   0.08781
H          H       0.73959   0.18605   0.47674   0.13900
H          H       0.70077   0.95794   0.50378   0.09590
H          H       0.68035   0.03812   0.52297   0.09265
H          H       0.67443   0.97978   0.58332   0.08466
C          C       0.40469   0.34133   0.28888  -0.18827
C          C       0.31113   0.35218   0.39899   0.11786
C          C       0.19495   0.32501   0.39600  -0.20614
C          C       0.09359   0.31492   0.45064  -0.10123
C          C       0.11051   0.33185   0.50778  -0.13856
C          C       0.22647   0.36051   0.51240  -0.08313
C          C       0.32859   0.37263   0.45744   0.21085
C          C       0.23931   0.37451   0.57347   0.06952
C          C       0.44275   0.43619   0.65313   0.37927
C          C       0.46089   0.44820   0.71620   0.05199
C          C       0.40899   0.41300   0.76793  -0.15910
C          C       0.43309   0.42485   0.82587   0.07833
C          C       0.55280   0.50332   0.78515   0.08038
C          C       0.53460   0.49444   0.72524  -0.15690
C          C       0.78364   0.46476   0.48907  -0.13848
C          C       0.03703   0.15882   0.21211  -0.19104
C          C       0.06468   0.14794   0.10205   0.11790
C          C       0.91767   0.17502   0.10544  -0.20627
C          C       0.86031   0.18483   0.05107  -0.10159
C          C       0.95128   0.16766   0.99374  -0.13955
C          C       0.10110   0.13912   0.98875  -0.08370
C          C       0.16106   0.12724   0.04339   0.21126
C          C       0.18869   0.12510   0.92744   0.06913
C          C       0.53481   0.06354   0.84693   0.38163
C          C       0.62777   0.05143   0.78373   0.04933
C          C       0.59118   0.08689   0.73240  -0.15748
C          C       0.68450   0.07518   0.67411   0.07676
C          C       0.84360   0.99635   0.71388   0.08076
C          C       0.75739   0.00521   0.77413  -0.15540
C          C       0.73845   0.03463   0.01085  -0.13770
C          C       0.25549   0.28780   0.15800  -0.18910
C          C       0.16897   0.39806   0.14797   0.12032
C          C       0.02581   0.39440   0.17502  -0.20932
C          C       0.91307   0.44873   0.18468  -0.09962
C          C       0.94551   0.50626   0.16775  -0.13963
C          C       0.09019   0.51159   0.13948  -0.08306
C          C       0.20537   0.45686   0.12744   0.21088
C          C       0.11619   0.57294   0.12548   0.06733
C          C       0.38185   0.65295   0.06365   0.38051
C          C       0.41190   0.71610   0.05150   0.05087
C          C       0.32395   0.76771   0.08684  -0.15784
C          C       0.35887   0.82591   0.07500   0.07741
C          C       0.55804   0.78561   0.99634   0.08021
C          C       0.53210   0.72542   0.00526  -0.15743
C          C       0.75017   0.48837   0.03418  -0.13639
C          C       0.69946   0.21263   0.34164  -0.19036
C          C       0.71322   0.10245   0.35207   0.11759
C          C       0.59402   0.10606   0.32483  -0.20488
C          C       0.54603   0.05179   0.31495  -0.10179
C          C       0.61879   0.99427   0.33210  -0.13995
C          C       0.73963   0.98897   0.36072  -0.08255
C          C       0.78768   0.04360   0.37276   0.21274
C          C       0.81295   0.92763   0.37484   0.06539
C          C       0.09602   0.84678   0.43652   0.38113
C          C       0.17755   0.78362   0.44859   0.05045
C          C       0.17818   0.73190   0.41335  -0.15922
C          C       0.26063   0.67386   0.42526   0.07954
C          C       0.33905   0.71459   0.50370   0.07885
C          C       0.26039   0.77459   0.49477  -0.15518
C          C       0.27340   0.01042   0.46495  -0.13911
C          C       0.59530   0.65866   0.71111  -0.18824
C          C       0.68886   0.64782   0.60101   0.11741
C          C       0.80504   0.67498   0.60400  -0.20589
C          C       0.90640   0.68507   0.54936  -0.10141
C          C       0.88948   0.66814   0.49222  -0.13854
C          C       0.77352   0.63949   0.48759  -0.08315
C          C       0.67141   0.62737   0.54255   0.21118
C          C       0.76068   0.62548   0.42653   0.06940
C          C       0.55724   0.56380   0.34686   0.37933
C          C       0.53910   0.55180   0.28379   0.05234
C          C       0.59100   0.58700   0.23207  -0.15937
C          C       0.56691   0.57515   0.17413   0.07832
C          C       0.44720   0.49668   0.21485   0.08054
C          C       0.46539   0.50556   0.27476  -0.15725
C          C       0.21636   0.53524   0.51093  -0.13827
C          C       0.96296   0.84118   0.78788  -0.19087
C          C       0.93532   0.85206   0.89795   0.11803
C          C       0.08233   0.82498   0.89456  -0.20641
C          C       0.13969   0.81517   0.94893  -0.10145
C          C       0.04871   0.83233   0.00626  -0.13979
C          C       0.89890   0.86087   0.01125  -0.08354
C          C       0.83893   0.87275   0.95661   0.21101
C          C       0.81130   0.87490   0.07256   0.06878
C          C       0.46519   0.93646   0.15307   0.38173
C          C       0.37222   0.94857   0.21627   0.04923
C          C       0.40881   0.91311   0.26759  -0.15740
C          C       0.31550   0.92481   0.32588   0.07670
C          C       0.15639   0.00364   0.28612   0.08085
C          C       0.24260   0.99479   0.22587  -0.15522
C          C       0.26155   0.96537   0.98914  -0.13755
C          C       0.74450   0.71220   0.84200  -0.18933
C          C       0.83102   0.60193   0.85203   0.12031
C          C       0.97418   0.60559   0.82498  -0.20913
C          C       0.08692   0.55126   0.81532  -0.09975
C          C       0.05448   0.49373   0.83225  -0.13916
C          C       0.90980   0.48840   0.86051  -0.08312
C          C       0.79462   0.54314   0.87256   0.21072
C          C       0.88381   0.42706   0.87451   0.06736
C          C       0.61815   0.34704   0.93634   0.38022
C          C       0.58809   0.28390   0.94850   0.05100
C          C       0.67605   0.23229   0.91315  -0.15795
C          C       0.64113   0.17409   0.92500   0.07742
C          C       0.44195   0.21438   0.00366   0.08027
C          C       0.46790   0.27457   0.99473  -0.15738
C          C       0.24982   0.51163   0.96582  -0.13617
C          C       0.30053   0.78737   0.65836  -0.19043
C          C       0.28677   0.89755   0.64793   0.11764
C          C       0.40597   0.89394   0.67517  -0.20487
C          C       0.45396   0.94821   0.68505  -0.10199
C          C       0.38120   0.00573   0.66789  -0.13976
C          C       0.26037   0.01103   0.63928  -0.08260
C          C       0.21231   0.95640   0.62724   0.21257
C          C       0.18704   0.07237   0.62516   0.06544
C          C       0.90397   0.15322   0.56347   0.38111
C          C       0.82244   0.21637   0.55141   0.05035
C          C       0.82181   0.26809   0.58665  -0.15931
C          C       0.73936   0.32613   0.57474   0.07941
C          C       0.66095   0.28541   0.49630   0.07894
C          C       0.73960   0.22540   0.50523  -0.15499
C          C       0.72659   0.98958   0.53505  -0.13903
N          N       0.34057   0.40043   0.58595  -0.12551
N          N       0.33799   0.40766   0.64875  -0.34486
N          N       0.50389   0.46918   0.83493  -0.25037
N          N       0.32897   0.09959   0.91440  -0.12544
N          N       0.39665   0.09228   0.85159  -0.34448
N          N       0.80915   0.03071   0.66444  -0.24886
N          N       0.24358   0.58573   0.09987  -0.12190
N          N       0.24825   0.64857   0.09240  -0.34551
N          N       0.47388   0.83530   0.03051  -0.24971
N          N       0.92698   0.91458   0.40063  -0.12293
N          N       0.98671   0.85158   0.40799  -0.34495
N          N       0.34048   0.66477   0.46957  -0.25005
N          N       0.65942   0.59956   0.41405  -0.12543
N          N       0.66201   0.59234   0.35125  -0.34505
N          N       0.49611   0.53081   0.16507  -0.25011
N          N       0.67102   0.90041   0.08560  -0.12483
N          N       0.60335   0.90771   0.14841  -0.34509
N          N       0.19084   0.96929   0.33556  -0.24900
N          N       0.75641   0.41427   0.90013  -0.12183
N          N       0.75175   0.35143   0.90760  -0.34552
N          N       0.52612   0.16470   0.96949  -0.24965
N          N       0.07301   0.08542   0.59937  -0.12272
N          N       0.01328   0.14842   0.59201  -0.34537
N          N       0.65951   0.33523   0.53043  -0.25005
O          O       0.41741   0.36134   0.34813  -0.14542
O          O       0.43739   0.39993   0.45741  -0.46040
O          O       0.53360   0.45397   0.60538  -0.47895
O          O       0.63958   0.47279   0.47837  -0.47492
O          O       0.12988   0.13908   0.15266  -0.14536
O          O       0.29767   0.09995   0.04286  -0.45840
O          O       0.59606   0.04570   0.89442  -0.48021
O          O       0.59139   0.02701   0.02169  -0.47446
O          O       0.28579   0.34771   0.13883  -0.14563
O          O       0.34131   0.45723   0.09993  -0.45905
O          O       0.49075   0.60515   0.04582  -0.47918
O          O       0.61396   0.47713   0.02713  -0.47448
O          O       0.77042   0.15273   0.36109  -0.14536
O          O       0.89633   0.04293   0.40019  -0.46047
O          O       0.13915   0.89436   0.45434  -0.48090
O          O       0.11850   0.02153   0.47282  -0.47481
O          O       0.58258   0.63865   0.65186  -0.14493
O          O       0.56261   0.60006   0.54258  -0.46036
O          O       0.46639   0.54602   0.39462  -0.47869
O          O       0.36042   0.52720   0.52163  -0.47522
O          O       0.87012   0.86092   0.84734  -0.14521
O          O       0.70232   0.90004   0.95714  -0.45805
O          O       0.40393   0.95430   0.10558  -0.47998
O          O       0.40861   0.97299   0.97830  -0.47441
O          O       0.71420   0.65228   0.86117  -0.14545
O          O       0.65868   0.54277   0.90007  -0.45897
O          O       0.50925   0.39484   0.95418  -0.47900
O          O       0.38603   0.52287   0.97287  -0.47484
O          O       0.22958   0.84727   0.63891  -0.14503
O          O       0.10366   0.95707   0.59980  -0.46004
O          O       0.86084   0.10564   0.54566  -0.48051
O          O       0.88150   0.97847   0.52718  -0.47474

