data_crystal

_audit_creation_method 'AiiDA-DDEC plugin'

_cell_length_a        16.42398
_cell_length_b        17.26982
_cell_length_c        18.57888

_cell_angle_alpha     90.00852
_cell_angle_beta     89.94660
_cell_angle_gamma     95.31150

_symmetry_space_group_name_Hall 'P 1'
_symmetry_space_group_name_H-M  'P 1'

loop_
_symmetry_equiv_pos_as_xyz
 'x,y,z'

loop_
_atom_site_label
_atom_site_type_symbol
_atom_site_fract_x
_atom_site_fract_y
_atom_site_fract_z
_atom_site_charge
Zn         Zn      0.49403   0.47511   0.56824   0.92983
Zn         Zn      0.67114   0.50233   0.55848   0.93416
Zn         Zn      0.50613   0.02475   0.06757   0.92957
Zn         Zn      0.32871   0.99763   0.06004   0.93832
Zn         Zn      0.50598   0.52489   0.43176   0.92975
Zn         Zn      0.32887   0.49767   0.44152   0.93413
Zn         Zn      0.49388   0.97525   0.93243   0.92963
Zn         Zn      0.67129   0.00236   0.93995   0.93815
H          H       0.43960   0.12535   0.83408   0.28629
H          H       0.72518   0.34825   0.65891   0.28397
H          H       0.13855   0.64785   0.52535   0.26839
H          H       0.30004   0.13812   0.87496   0.13517
H          H       0.15631   0.13732   0.83470   0.10379
H          H       0.12445   0.17103   0.70770   0.10504
H          H       0.23885   0.20399   0.62118   0.10422
H          H       0.38203   0.20191   0.65988   0.12571
H          H       0.70799   0.18380   0.78767   0.13837
H          H       0.45495   0.29432   0.70988   0.13484
H          H       0.85858   0.29541   0.61375   0.11718
H          H      -0.00054   0.27429   0.65252   0.09417
H          H       0.03133   0.26143   0.78336   0.09778
H          H       0.92169   0.27124   0.87418   0.09163
H          H       0.78104   0.29310   0.83542   0.12516
H          H       0.91328   0.60105   0.54176   0.13512
H          H       0.14856   0.77412   0.58341   0.12499
H          H       0.97550   0.93324   0.51692   0.10419
H          H       0.10523   0.90772   0.57891   0.11102
H          H       0.89125   0.82356   0.45842   0.10146
H          H       0.93418   0.69041   0.46218   0.12088
H          H       0.56023   0.37453   0.33435   0.28310
H          H       0.27489   0.15165   0.15929   0.28352
H          H       0.86183   0.85155   0.02338   0.26781
H          H       0.69969   0.36198   0.37491   0.13690
H          H       0.84335   0.36282   0.33447   0.10385
H          H       0.87531   0.32882   0.20747   0.10343
H          H       0.76094   0.29582   0.12107   0.10336
H          H       0.61775   0.29776   0.15999   0.12614
H          H       0.29171   0.31619   0.28795   0.13885
H          H       0.54492   0.20559   0.21017   0.13543
H          H       0.14144   0.20443   0.11379   0.11784
H          H       0.00055   0.22580   0.15261   0.09367
H          H       0.96846   0.23867   0.28345   0.09791
H          H       0.07791   0.22859   0.37427   0.09222
H          H       0.21858   0.20665   0.33541   0.12552
H          H       0.08724   0.89936   0.04161   0.13559
H          H       0.85171   0.72602   0.08357   0.12174
H          H       0.02409   0.56629   0.01667   0.10443
H          H       0.89462   0.59223   0.07901   0.11019
H          H       0.10900   0.67581   0.95849   0.10154
H          H       0.06651   0.80921   0.96239   0.12105
H          H       0.56041   0.87465   0.16592   0.28939
H          H       0.27483   0.65174   0.34109   0.28404
H          H       0.86146   0.35215   0.47465   0.26824
H          H       0.69997   0.86188   0.12504   0.13515
H          H       0.84369   0.86267   0.16530   0.10397
H          H       0.87556   0.82896   0.29230   0.10525
H          H       0.76116   0.79600   0.37882   0.10422
H          H       0.61797   0.79809   0.34012   0.12549
H          H       0.29201   0.81619   0.21233   0.13814
H          H       0.54506   0.70568   0.29012   0.13511
H          H       0.14142   0.70458   0.38625   0.11729
H          H       0.00055   0.72570   0.34748   0.09396
H          H       0.96868   0.73857   0.21664   0.09760
H          H       0.07831   0.72876   0.12582   0.09169
H          H       0.21896   0.70690   0.16458   0.12536
H          H       0.08672   0.39894   0.45824   0.13539
H          H       0.85145   0.22588   0.41659   0.12468
H          H       0.02450   0.06675   0.48308   0.10439
H          H       0.89477   0.09227   0.42109   0.11105
H          H       0.10876   0.17644   0.54158   0.10161
H          H       0.06583   0.30959   0.53782   0.12083
H          H       0.43977   0.62547   0.66565   0.28321
H          H       0.72511   0.84835   0.84071   0.28328
H          H       0.13818   0.14844   0.97662   0.26837
H          H       0.30032   0.63801   0.62509   0.13692
H          H       0.15665   0.63718   0.66553   0.10386
H          H       0.12469   0.67118   0.79253   0.10332
H          H       0.23906   0.70417   0.87893   0.10321
H          H       0.38225   0.70224   0.84001   0.12619
H          H       0.70830   0.68381   0.71205   0.13905
H          H       0.45509   0.79440   0.78983   0.13517
H          H       0.85857   0.79556   0.88621   0.11773
H          H      -0.00055   0.77420   0.84739   0.09371
H          H       0.03154   0.76133   0.71655   0.09807
H          H       0.92210   0.77140   0.62573   0.09229
H          H       0.78142   0.79334   0.66459   0.12543
H          H       0.91276   0.10064   0.95839   0.13534
H          H       0.14830   0.27398   0.91643   0.12404
H          H       0.97592   0.43370   0.98333   0.10403
H          H       0.10539   0.40777   0.92099   0.11013
H          H       0.89100   0.32419   0.04151   0.10128
H          H       0.93349   0.19078   0.03761   0.12097
C          C       0.28641   0.15299   0.81950  -0.17908
C          C       0.20561   0.15273   0.79663  -0.07472
C          C       0.18767   0.17179   0.72542  -0.11224
C          C       0.25181   0.19043   0.67699  -0.08301
C          C       0.33305   0.19062   0.69887  -0.18421
C          C       0.35117   0.17253   0.77075   0.22249
C          C       0.50403   0.20261   0.77149   0.20860
C          C       0.57901   0.17362   0.79466  -0.10722
C          C       0.65311   0.20937   0.77076  -0.18180
C          C       0.65860   0.27423   0.72399   0.22000
C          C       0.58389   0.30368   0.70142  -0.11750
C          C       0.50968   0.26820   0.72594  -0.17718
C          C       0.58147   0.10403   0.84303   0.58155
C          C       0.58136   0.37197   0.65202   0.59240
C          C       0.81064   0.29374   0.72201   0.21761
C          C       0.87309   0.29028   0.67058  -0.17564
C          C       0.95202   0.27838   0.69283  -0.07640
C          C       0.96970   0.27055   0.76598  -0.10049
C          C       0.90786   0.27540   0.81718  -0.06924
C          C       0.82866   0.28709   0.79565  -0.17781
C          C       0.82414   0.46855   0.52037   0.56093
C          C       0.91483   0.48337   0.50959  -0.11105
C          C       0.95186   0.55798   0.52184  -0.18429
C          C       0.03640   0.57696   0.51235   0.20115
C          C       0.04425   0.72253   0.52396   0.22928
C          C       0.09220   0.78536   0.55609  -0.19207
C          C       0.99498   0.87476   0.51851  -0.11724
C          C       0.06764   0.86033   0.55333  -0.07118
C          C       0.94746   0.81291   0.48625  -0.07650
C          C       0.97112   0.73735   0.48882  -0.19645
C          C       0.71330   0.34693   0.31946  -0.17945
C          C       0.79410   0.34719   0.29648  -0.07493
C          C       0.81208   0.32802   0.22528  -0.10999
C          C       0.74798   0.30932   0.17692  -0.08231
C          C       0.66673   0.30909   0.19889  -0.18499
C          C       0.64860   0.32730   0.27078   0.22298
C          C       0.49580   0.29738   0.27164   0.20977
C          C       0.42082   0.32633   0.29513  -0.10785
C          C       0.34676   0.29085   0.27100  -0.17983
C          C       0.34127   0.22598   0.22416   0.21583
C          C       0.41594   0.19630   0.20161  -0.11477
C          C       0.49011   0.23176   0.22602  -0.17919
C          C       0.41842   0.39536   0.34432   0.58365
C          C       0.41812   0.12788   0.15220   0.59036
C          C       0.18925   0.20635   0.22204   0.21660
C          C       0.12689   0.20974   0.17062  -0.17576
C          C       0.04793   0.22167   0.19291  -0.07681
C          C       0.03011   0.22947   0.26607  -0.09853
C          C       0.09183   0.22451   0.31726  -0.07131
C          C       0.17106   0.21284   0.29569  -0.17730
C          C       0.17563   0.03273   0.02182   0.56058
C          C       0.08514   0.01708   0.00976  -0.11199
C          C       0.04846   0.94224   0.02171  -0.18487
C          C       0.96397   0.92280   0.01204   0.20359
C          C       0.95621   0.77722   0.02399   0.22689
C          C       0.90804   0.71456   0.05622  -0.18823
C          C       0.00496   0.62490   0.01848  -0.11661
C          C       0.93237   0.63952   0.05341  -0.07022
C          C       0.05280   0.68665   0.98632  -0.07681
C          C       0.02941   0.76229   0.98895  -0.19404
C          C       0.71359   0.84701   0.18050  -0.17911
C          C       0.79439   0.84727   0.20337  -0.07484
C          C       0.81233   0.82820   0.27458  -0.11199
C          C       0.74820   0.80956   0.32301  -0.08297
C          C       0.66695   0.80937   0.30113  -0.18425
C          C       0.64883   0.82747   0.22925   0.22251
C          C       0.49598   0.79738   0.22851   0.20845
C          C       0.42100   0.82638   0.20534  -0.10729
C          C       0.34690   0.79063   0.22924  -0.18126
C          C       0.34140   0.72577   0.27601   0.21815
C          C       0.41612   0.69632   0.29858  -0.11720
C          C       0.49033   0.73179   0.27406  -0.17673
C          C       0.41854   0.89597   0.15697   0.58190
C          C       0.41865   0.62802   0.34798   0.59240
C          C       0.18936   0.70625   0.27799   0.21746
C          C       0.12691   0.70972   0.32942  -0.17581
C          C       0.04798   0.72162   0.30717  -0.07635
C          C       0.03030   0.72945   0.23402  -0.10065
C          C       0.09215   0.72459   0.18282  -0.06946
C          C       0.17135   0.71290   0.20435  -0.17751
C          C       0.17587   0.53145   0.47963   0.56070
C          C       0.08517   0.51662   0.49041  -0.11111
C          C       0.04815   0.44201   0.47815  -0.18413
C          C       0.96360   0.42303   0.48765   0.20122
C          C       0.95575   0.27746   0.47604   0.22910
C          C       0.90781   0.21463   0.44390  -0.19210
C          C       0.00503   0.12524   0.48149  -0.11707
C          C       0.93237   0.13967   0.44667  -0.07115
C          C       0.05254   0.18709   0.51375  -0.07633
C          C       0.02888   0.26264   0.51118  -0.19639
C          C       0.28670   0.65307   0.68054  -0.17900
C          C       0.20590   0.65281   0.70351  -0.07528
C          C       0.18792   0.67197   0.77472  -0.11013
C          C       0.25203   0.69067   0.82308  -0.08252
C          C       0.33328   0.69090   0.80110  -0.18451
C          C       0.35140   0.67270   0.72922   0.22269
C          C       0.50421   0.70262   0.72836   0.20987
C          C       0.57919   0.67367   0.70487  -0.10775
C          C       0.65325   0.70914   0.72900  -0.17954
C          C       0.65874   0.77401   0.77584   0.21580
C          C       0.58406   0.80370   0.79839  -0.11482
C          C       0.50989   0.76823   0.77398  -0.17940
C          C       0.58159   0.60463   0.65568   0.58346
C          C       0.58188   0.87211   0.84780   0.59067
C          C       0.81075   0.79365   0.77796   0.21630
C          C       0.87312   0.79025   0.82938  -0.17571
C          C       0.95208   0.77833   0.80709  -0.07665
C          C       0.96989   0.77052   0.73393  -0.09840
C          C       0.90817   0.77548   0.68274  -0.07104
C          C       0.82894   0.78716   0.70431  -0.17756
C          C       0.82437   0.96726   0.97818   0.56055
C          C       0.91487   0.98291   0.99024  -0.11194
C          C       0.95154   0.05776   0.97829  -0.18500
C          C       0.03603   0.07720   0.98796   0.20370
C          C       0.04380   0.22277   0.97600   0.22677
C          C       0.09197   0.28543   0.94378  -0.18980
C          C       0.99504   0.37509   0.98152  -0.11651
C          C       0.06763   0.36047   0.94659  -0.07041
C          C       0.94720   0.31335   0.01368  -0.07694
C          C       0.97060   0.23771   0.01105  -0.19387
N          N       0.43072   0.16814   0.79622  -0.27754
N          N       0.73191   0.30646   0.69787  -0.28010
N          N       0.07499   0.64994   0.52600  -0.31475
N          N       0.56907   0.33184   0.29628  -0.27331
N          N       0.26807   0.19381   0.19798  -0.27560
N          N       0.92547   0.84982   0.02572  -0.31544
N          N       0.56929   0.83185   0.20378  -0.27965
N          N       0.26809   0.69354   0.30213  -0.27940
N          N       0.92502   0.35005   0.47400  -0.31465
N          N       0.43094   0.66815   0.70371  -0.27337
N          N       0.73194   0.80619   0.80202  -0.27548
N          N       0.07454   0.15018   0.97428  -0.31600
O          O       0.50991   0.39063   0.63627  -0.52602
O          O       0.64908   0.40573   0.62934  -0.53235
O          O       0.51231   0.06880   0.86156  -0.53255
O          O       0.65119   0.08562   0.86209  -0.52768
O          O       0.78964   0.52331   0.55257  -0.53253
O          O       0.78594   0.40611   0.49829  -0.53372
O          O       0.58404   0.48810   0.49505  -0.99270
O          O       0.48929   0.10963   0.13512  -0.52452
O          O       0.35003   0.09371   0.13083  -0.53125
O          O       0.48763   0.43012   0.36318  -0.52991
O          O       0.34885   0.41395   0.36371  -0.52883
O          O       0.21048   0.97630   0.05075  -0.53348
O          O       0.21331   0.09718   0.00405  -0.53228
O          O       0.41560   0.01180   0.99597  -0.99391
O          O       0.49010   0.60936   0.36373  -0.52567
O          O       0.35093   0.59427   0.37066  -0.53255
O          O       0.48770   0.93120   0.13844  -0.53378
O          O       0.34882   0.91438   0.13791  -0.52814
O          O       0.21037   0.47668   0.44743  -0.53214
O          O       0.21406   0.59388   0.50171  -0.53366
O          O       0.41597   0.51190   0.50495  -0.99289
O          O       0.51072   0.89037   0.86488  -0.52503
O          O       0.64997   0.90629   0.86917  -0.53111
O          O       0.51237   0.56988   0.63682  -0.53002
O          O       0.65115   0.58604   0.63629  -0.52851
O          O       0.78952   0.02369   0.94925  -0.53377
O          O       0.78669   0.90281   0.99595  -0.53192
O          O       0.58440   0.98820   0.00403  -0.99368

