data_crystal

_audit_creation_method 'AiiDA-DDEC plugin'

_cell_length_a        13.07157
_cell_length_b        13.05578
_cell_length_c        24.43125

_cell_angle_alpha     89.80495
_cell_angle_beta     90.31721
_cell_angle_gamma     97.14384

_symmetry_space_group_name_Hall 'P 1'
_symmetry_space_group_name_H-M  'P 1'

loop_
_symmetry_equiv_pos_as_xyz
 'x,y,z'

loop_
_atom_site_label
_atom_site_type_symbol
_atom_site_fract_x
_atom_site_fract_y
_atom_site_fract_z
_atom_site_charge
Zn         Zn     -0.00081   0.15470   0.60635   0.94462
Zn         Zn      0.50210   0.34230   0.10632   0.94388
Zn         Zn      0.65831   0.49889   0.89338   0.94615
Zn         Zn      0.84079   0.00229   0.39356   0.94484
Zn         Zn      0.00253   0.84021   0.39600   0.94237
Zn         Zn      0.49460   0.66004   0.89359   0.94969
Zn         Zn      0.34075   0.50419   0.10401   0.94559
Zn         Zn      0.16029   0.99330   0.60409   0.94566
Zn         Zn      0.18393   0.17931   0.52264   0.98012
Zn         Zn      0.31597   0.31988   0.02288   0.97637
Zn         Zn      0.67943   0.68342   0.97686   0.97942
Zn         Zn      0.81703   0.81610   0.47676   0.97928
Zn         Zn     -0.00203   0.00198   0.49911   1.01219
Zn         Zn      0.50138   0.49785  -0.00132   1.01416
H          H       0.64901   0.90633   0.56544   0.12015
H          H       0.45968   0.91683   0.57151   0.11921
H          H       0.43022   0.28200   0.56223   0.13184
H          H       0.55601   0.43978   0.56247   0.09963
H          H       0.74356   0.42837   0.56468   0.11154
H          H       0.80664   0.25757   0.56631   0.11534
H          H       0.85150   0.59356   0.06621   0.12057
H          H       0.04095   0.58287   0.07197   0.11932
H          H       0.07021   0.21817   0.06258   0.13191
H          H       0.94465   0.06023   0.06221   0.10014
H          H       0.75707   0.07157   0.06423   0.11207
H          H       0.69382   0.24213   0.06642   0.11537
H          H       0.40682   0.14927   0.93419   0.12020
H          H       0.41708   0.95945   0.92868   0.11951
H          H       0.78176   0.92982   0.93785   0.13228
H          H       0.93936   0.05566   0.93768   0.09951
H          H       0.92797   0.24355   0.93550   0.11149
H          H       0.75743   0.30669   0.93362   0.11477
H          H       0.09145   0.35063   0.43372   0.12130
H          H       0.08153   0.54098   0.42857   0.11938
H          H       0.71741   0.57150   0.43784   0.13121
H          H       0.55943   0.44628   0.43809   0.10125
H          H       0.57008   0.25838   0.43610   0.11227
H          H       0.74025   0.19442   0.43387   0.11482
H          H       0.35401   0.09156   0.43461   0.11881
H          H       0.54281   0.07908   0.42892   0.12001
H          H       0.56871   0.71351   0.43777   0.13040
H          H       0.44170   0.55665   0.43850   0.10121
H          H       0.25442   0.56995   0.43649   0.11092
H          H       0.19298   0.74097   0.43422   0.11581
H          H       0.14511   0.40947   0.93550   0.12135
H          H       0.95606   0.42097   0.92944   0.11937
H          H       0.92798   0.78532   0.93879   0.13150
H          H       0.05377   0.94313   0.93974   0.09927
H          H       0.24128   0.93150   0.93664   0.11084
H          H       0.30426   0.76102   0.93345   0.11580
H          H       0.59208   0.85548   0.06535   0.12028
H          H       0.57931   0.04466   0.07160   0.12025
H          H       0.21452   0.07010   0.06258   0.13115
H          H       0.05781   0.94289   0.06138   0.10125
H          H       0.07122   0.75531   0.06333   0.11105
H          H       0.24202   0.69390   0.06581   0.11519
H          H       0.90926   0.64368   0.56456   0.12054
H          H       0.92112   0.45437   0.57119   0.11909
H          H       0.28518   0.42729   0.56156   0.13092
H          H       0.44237   0.55343   0.56027   0.09923
H          H       0.43036   0.74135   0.56332   0.11121
H          H       0.25998   0.80384   0.56644   0.11482
H          H       0.04709   0.03697   0.79207   0.11469
H          H       0.08900   0.08610   0.88913   0.10255
H          H       0.36565   0.36735   0.87752   0.12601
H          H       0.45934   0.45894   0.80113   0.09854
H          H       0.41399   0.41012   0.70404   0.10591
H          H       0.27620   0.26761   0.68509   0.11694
H          H       0.45632   0.45972   0.29183   0.11492
H          H       0.41203   0.41385   0.38880   0.10236
H          H       0.13314   0.13444   0.37732   0.12537
H          H       0.03996   0.04176   0.30091   0.10017
H          H       0.08603   0.08928   0.20384   0.10556
H          H       0.22518   0.23027   0.18484   0.11641
H          H       0.53866   0.54562   0.70625   0.11500
H          H       0.58648   0.59040   0.60930   0.10327
H          H       0.86824   0.86621   0.62204   0.12617
H          H       0.95925   0.95990   0.69873   0.09892
H          H       0.90980   0.91445   0.79559   0.10552
H          H       0.76862   0.77532   0.81409   0.11727
H          H       0.96002   0.95595   0.20803   0.11490
H          H       0.91357   0.91161   0.11093   0.10290
H          H       0.63385   0.63348   0.12224   0.12644
H          H       0.54182   0.53986   0.19840   0.09965
H          H       0.58949   0.58592   0.29557   0.10580
H          H       0.73032   0.72524   0.31482   0.11674
C          C       0.68954   0.07058   0.56703  -0.02390
C          C       0.61989   0.98082   0.56668  -0.09092
C          C       0.51396   0.98684   0.56955  -0.08151
C          C       0.47457   0.08125   0.56911  -0.06099
C          C       0.54434   0.17577   0.56650   0.05058
C          C       0.51201   0.27589   0.56481  -0.10092
C          C       0.58302   0.36435   0.56471  -0.06488
C          C       0.68933   0.35805   0.56586  -0.07271
C          C       0.72419   0.26218   0.56613  -0.09399
C          C       0.65383   0.16945   0.56692   0.03606
C          C       0.80293   0.06144   0.56776   0.59994
C          C       0.35918   0.07653   0.57107   0.58716
C          C       0.81074   0.42928   0.06771  -0.02379
C          C       0.88046   0.51901   0.06745  -0.08975
C          C       0.98646   0.51298   0.07004  -0.08300
C          C       0.02579   0.41859   0.06937  -0.06288
C          C       0.95598   0.32414   0.06680   0.05278
C          C       0.98842   0.22411   0.06492  -0.10317
C          C       0.91757   0.13558   0.06462  -0.06548
C          C       0.81127   0.14186   0.06567  -0.07371
C          C       0.77628   0.23765   0.06628  -0.09364
C          C       0.84650   0.33042   0.06736   0.03446
C          C       0.69731   0.43854   0.06852   0.59983
C          C       0.14120   0.42330   0.07110   0.58908
C          C       0.57073   0.18965   0.93192  -0.02389
C          C       0.48109   0.11994   0.93285  -0.09010
C          C       0.48701   0.01381   0.93047  -0.08225
C          C       0.58130   0.97437   0.93099  -0.06089
C          C       0.67572   0.04418   0.93346   0.05143
C          C       0.77568   0.01172   0.93531  -0.10278
C          C       0.86405   0.08278   0.93542  -0.06438
C          C       0.85777   0.18922   0.93421  -0.07166
C          C       0.76204   0.22417   0.93366  -0.09484
C          C       0.66943   0.15380   0.93261   0.03540
C          C       0.56148   0.30316   0.93030   0.59839
C          C       0.57662   0.85887   0.92892   0.58735
C          C       0.92735   0.31109   0.43230  -0.02246
C          C       0.01732   0.38036   0.43273  -0.09017
C          C       0.01170   0.48651   0.43038  -0.08252
C          C       0.91755   0.52614   0.43099  -0.06225
C          C       0.82292   0.45679   0.43351   0.05308
C          C       0.72314   0.48960   0.43537  -0.10408
C          C       0.63455   0.41886   0.43566  -0.06422
C          C       0.64047   0.31237   0.43461  -0.07276
C          C       0.73601   0.27703   0.43399  -0.09383
C          C       0.82880   0.34717   0.43288   0.03460
C          C       0.93641   0.19771   0.43064   0.59747
C          C       0.92250   0.64148   0.42906   0.58724
C          C       0.31128   0.92738   0.43230  -0.02308
C          C       0.38190   0.01651   0.43315  -0.08826
C          C       0.48776   0.00954   0.43058  -0.08252
C          C       0.52612   0.91464   0.43058  -0.06348
C          C       0.45556   0.82076   0.43333   0.05369
C          C       0.48705   0.72029   0.43529  -0.10642
C          C       0.41541   0.63236   0.43577  -0.06667
C          C       0.30931   0.63970   0.43480  -0.07545
C          C       0.27529   0.73591   0.43413  -0.09109
C          C       0.34626   0.82812   0.43284   0.03579
C          C       0.19779   0.93694   0.43070   0.59476
C          C       0.64129   0.91785   0.42779   0.58634
C          C       0.18700   0.57369   0.93273  -0.02366
C          C       0.11672   0.48430   0.93386  -0.09026
C          C       0.01072   0.49078   0.93124  -0.08278
C          C       0.97189   0.58547   0.93126  -0.06045
C          C       0.04210   0.67949   0.93391   0.05169
C          C       0.00977   0.77949   0.93611  -0.10472
C          C       0.08077   0.86786   0.93660  -0.06535
C          C       0.18698   0.86130   0.93502  -0.07419
C          C       0.22182   0.76545   0.93393  -0.09160
C          C       0.15150   0.67275   0.93305   0.03473
C          C       0.30048   0.56390   0.93075   0.59891
C          C       0.85664   0.58189   0.92817   0.58727
C          C       0.42832   0.81261   0.06754  -0.02156
C          C       0.51718   0.88350   0.06690  -0.08927
C          C       0.50998   0.98942   0.06974  -0.08511
C          C       0.41504   0.02756   0.06962  -0.05965
C          C       0.32149   0.95674   0.06691   0.05208
C          C       0.22119   0.98830   0.06492  -0.10578
C          C       0.13340   0.91656   0.06427  -0.06632
C          C       0.14082   0.81035   0.06522  -0.07445
C          C       0.23695   0.77631   0.06594  -0.09183
C          C       0.32903   0.84738   0.06726   0.03608
C          C       0.43832   0.69903   0.06916   0.59690
C          C       0.41792   0.14286   0.07213   0.58758
C          C       0.07314   0.68599   0.56733  -0.02382
C          C       0.98405   0.61533   0.56632  -0.09003
C          C       0.99075   0.50919   0.56920  -0.08244
C          C       0.08541   0.47043   0.56920  -0.05909
C          C       0.17910   0.54111   0.56636   0.05181
C          C       0.27912   0.50914   0.56415  -0.10579
C          C       0.36721   0.58045   0.56351  -0.06482
C          C       0.36043   0.68675   0.56499  -0.07320
C          C       0.26456   0.72132   0.56606  -0.09236
C          C       0.17215   0.65063   0.56705   0.03533
C          C       0.06354   0.79971   0.56910   0.59729
C          C       0.08246   0.35488   0.57206   0.58592
C          C       0.16122   0.15304   0.75927  -0.01931
C          C       0.10748   0.09955   0.80150  -0.10441
C          C       0.13111   0.12665   0.85573  -0.08571
C          C       0.20824   0.20612   0.86968  -0.06311
C          C       0.26572   0.26264   0.82673   0.05268
C          C       0.34589   0.34522   0.83570  -0.10192
C          C       0.39815   0.39669   0.79238  -0.05564
C          C       0.37310   0.36928   0.73790  -0.07953
C          C       0.29553   0.28945   0.72723  -0.09628
C          C       0.24088   0.23476   0.77061   0.03554
C          C       0.13087   0.12385   0.70160   0.59331
C          C       0.22230   0.22411   0.93069   0.54627
C          C       0.34147   0.34392   0.25899  -0.01928
C          C       0.39518   0.39796   0.30116  -0.10475
C          C       0.37040   0.37259   0.35539  -0.08661
C          C       0.29289   0.29382   0.36947  -0.06277
C          C       0.23511   0.23688   0.32658   0.05243
C          C       0.15385   0.15542   0.33551  -0.10115
C          C       0.10163   0.10352   0.29218  -0.05811
C          C       0.12727   0.13003   0.23769  -0.07774
C          C       0.20555   0.20904   0.22700  -0.09705
C          C       0.26068   0.26349   0.27041   0.03520
C          C       0.37169   0.37300   0.20140   0.59583
C          C       0.27961   0.27676   0.43060   0.54652
C          C       0.65468   0.65996   0.73956  -0.02076
C          C       0.60099   0.60643   0.69718  -0.10403
C          C       0.62745   0.63120   0.64308  -0.08782
C          C       0.70713   0.70823   0.62958  -0.06105
C          C       0.76395   0.76539   0.67255   0.05226
C          C       0.84624   0.84592   0.66376  -0.10067
C          C       0.89733   0.89830   0.70724  -0.05860
C          C       0.86964   0.87310   0.76160  -0.07720
C          C       0.79041   0.79490   0.77204  -0.09878
C          C       0.73618   0.73999   0.72852   0.03605
C          C       0.62492   0.63032   0.79716   0.59772
C          C       0.72467   0.72288   0.56882   0.54568
C          C       0.84390   0.84157   0.24074  -0.01906
C          C       0.89793   0.89504   0.19859  -0.10443
C          C       0.87230   0.87013   0.14430  -0.08682
C          C       0.79335   0.79252   0.13023  -0.06253
C          C       0.73656   0.73521   0.17313   0.05219
C          C       0.65509   0.65401   0.16406  -0.10142
C          C       0.60339   0.60170   0.20727  -0.05552
C          C       0.63004   0.62727   0.26178  -0.07831
C          C       0.70896   0.70568   0.27262  -0.09642
C          C       0.76330   0.76085   0.22930   0.03422
C          C       0.87286   0.87171   0.29840   0.59495
C          C       0.77605   0.77765   0.06917   0.54803
O          O       0.83862   0.01574   0.52807  -0.53908
O          O       0.85284   0.10167   0.60925  -0.53331
O          O       0.31822   0.15697   0.55845  -0.55315
O          O       0.30855   0.99049   0.58575  -0.53117
O          O       0.05512   0.16556   0.68267  -0.52425
O          O       0.66110   0.48431   0.02859  -0.54109
O          O       0.64816   0.39844   0.11020  -0.53205
O          O       0.18190   0.34302   0.05837  -0.55424
O          O       0.19218   0.50919   0.08575  -0.53146
O          O       0.44933   0.33429   0.18311  -0.52548
O          O       0.51482   0.33929   0.96947  -0.53778
O          O       0.60244   0.35270   0.88893  -0.53377
O          O       0.65711   0.81806   0.94155  -0.55275
O          O       0.49080   0.80810   0.91400  -0.53294
O          O       0.66640   0.55514   0.81688  -0.52651
O          O       0.98487   0.16094   0.46936  -0.53826
O          O       0.89366   0.14916   0.38933  -0.53112
O          O       0.84230   0.68228   0.44153  -0.55419
O          O       0.00829   0.69218   0.41439  -0.52914
O          O       0.83399   0.94928   0.31679  -0.52578
O          O       0.16131   0.98471   0.46931  -0.53907
O          O       0.14822   0.89418   0.38951  -0.53430
O          O       0.68172   0.83773   0.44151  -0.55128
O          O       0.69204   0.00251   0.41120  -0.53159
O          O       0.93516   0.81877   0.32220  -0.52460
O          O       0.33831   0.51587   0.96925  -0.54001
O          O       0.34836   0.60622   0.88909  -0.53595
O          O       0.81523   0.66134   0.94154  -0.55355
O          O       0.80670   0.49692   0.91131  -0.53093
O          O       0.55978   0.68119   0.81956  -0.52696
O          O       0.48473   0.66169   0.03037  -0.53857
O          O       0.39700   0.65029   0.11088  -0.53703
O          O       0.33793   0.18326   0.05831  -0.55090
O          O       0.50270   0.19358   0.08874  -0.53322
O          O       0.31890   0.43549   0.17762  -0.52639
O          O       0.01595   0.83779   0.53059  -0.53817
O          O       0.10618   0.84785   0.61080  -0.53656
O          O       0.16214   0.31427   0.55837  -0.55359
O          O      -0.00169   0.30384   0.58873  -0.53109
O          O       0.18129   0.05950   0.67823  -0.52541
O          O       0.16558   0.17067   0.96357  -0.52260
O          O       0.29518   0.29678   0.94491  -0.55856
O          O       0.08036   0.07701   0.55842  -0.97112
O          O       0.33913   0.32831   0.46320  -0.52102
O          O       0.20430   0.20706   0.44505  -0.55968
O          O       0.42039   0.42105   0.05847  -0.97156
O          O       0.67120   0.66601   0.53591  -0.52372
O          O       0.79659   0.79653   0.55476  -0.55812
O          O       0.57806   0.58039   0.93966  -0.97318
O          O       0.82942   0.83466   0.03634  -0.52352
O          O       0.70421   0.70396   0.05488  -0.55976
O          O       0.91925   0.91976   0.44117  -0.97143

