data_crystal

_audit_creation_method 'AiiDA-DDEC plugin'

_cell_length_a        12.94430
_cell_length_b        14.39123
_cell_length_c        25.15077

_cell_angle_alpha     106.86637
_cell_angle_beta     90.00228
_cell_angle_gamma     90.00683

_symmetry_space_group_name_Hall 'P 1'
_symmetry_space_group_name_H-M  'P 1'

loop_
_symmetry_equiv_pos_as_xyz
 'x,y,z'

loop_
_atom_site_label
_atom_site_type_symbol
_atom_site_fract_x
_atom_site_fract_y
_atom_site_fract_z
_atom_site_charge
Ni         Ni      0.88458   0.62308   0.77370   0.05426
Ni         Ni      0.38461   0.87689   0.72622   0.05594
Ni         Ni      0.11536   0.37691   0.22632   0.05474
Ni         Ni      0.61568   0.12294   0.27383   0.05596
H          H       0.10461   0.71741   0.62146   0.12240
H          H       0.04477   0.76464   0.73226   0.10920
H          H       0.89063   0.50846   0.64317   0.10170
H          H       0.14910   0.48404   0.55874   0.12445
H          H       0.79335   0.60690   0.58540   0.11968
H          H       0.76414   0.62083   0.51896   0.13465
H          H       0.85210   0.70135   0.56492   0.13792
H          H       0.11124   0.65864   0.80909   0.11696
H          H       0.16187   0.78931   0.91080   0.12046
H          H       0.85656   0.84278   0.86612   0.09708
H          H       0.77627   0.85889   0.95608   0.12123
H          H       0.80021   0.85677   0.02496   0.13515
H          H       0.87026   0.77838   0.96835   0.12733
H          H       0.13908   0.98236   0.93047   0.10648
H          H       0.00528   0.43331   0.77386   0.09977
H          H       0.83155   0.42767   0.91578   0.12286
H          H       0.80464   0.60513   0.89475   0.10916
H          H       0.92910   0.26881   0.74585   0.11581
H          H       0.09581   0.15542   0.89259   0.11338
H          H       0.09385   0.09775   0.68202   0.12527
H          H       0.95866   0.11608   0.67895   0.13556
H          H       0.00786   0.01588   0.69938   0.13687
H          H       0.02766   0.40885   0.93945   0.13211
H          H       0.06834   0.30583   0.95975   0.13329
H          H       0.93518   0.33178   0.95656   0.12841
H          H       0.24159   0.06710   0.73635   0.09884
H          H       0.05083   0.95803   0.84159   0.12238
H          H       0.21209   0.82922   0.80120   0.10516
H          H       0.60483   0.78270   0.87854   0.12229
H          H       0.54483   0.73547   0.76774   0.10883
H          H       0.39026   0.99123   0.85691   0.10166
H          H       0.64923   0.01561   0.94128   0.12437
H          H       0.29300   0.89325   0.91474   0.11982
H          H       0.26406   0.87913   0.98117   0.13473
H          H       0.35190   0.79873   0.93508   0.13789
H          H       0.61152   0.84133   0.69085   0.11679
H          H       0.66201   0.71035   0.58918   0.12072
H          H       0.35669   0.65731   0.63402   0.09659
H          H       0.27647   0.64116   0.54414   0.12103
H          H       0.30001   0.64308   0.47521   0.13506
H          H       0.37028   0.72161   0.53168   0.12795
H          H       0.63899   0.51742   0.56959   0.10644
H          H       0.50553   0.06655   0.72609   0.09988
H          H       0.33133   0.07196   0.58428   0.12268
H          H       0.30510   0.89428   0.60512   0.11055
H          H       0.42879   0.23107   0.75415   0.11570
H          H       0.59609   0.34420   0.60747   0.11313
H          H       0.59383   0.40213   0.81797   0.12526
H          H       0.45866   0.38378   0.82107   0.13572
H          H       0.50784   0.48396   0.80061   0.13708
H          H       0.52748   0.09085   0.56060   0.13249
H          H       0.56799   0.19387   0.54024   0.13342
H          H       0.43489   0.16788   0.54355   0.12839
H          H       0.74138   0.43320   0.76380   0.09850
H          H       0.55057   0.54132   0.65818   0.12231
H          H       0.71152   0.67062   0.69859   0.10482
H          H       0.89542   0.28253   0.37857   0.12294
H          H       0.95519   0.23534   0.26775   0.10917
H          H       0.10925   0.49157   0.35683   0.10157
H          H       0.85088   0.51593   0.44127   0.12463
H          H       0.20663   0.39309   0.41461   0.11974
H          H       0.23584   0.37912   0.48104   0.13443
H          H       0.14787   0.29863   0.43508   0.13789
H          H       0.88873   0.34133   0.19094   0.11708
H          H       0.83813   0.21073   0.08919   0.12043
H          H       0.14341   0.15715   0.13390   0.09684
H          H       0.22372   0.14109   0.04393   0.12107
H          H       0.19984   0.14326   0.97507   0.13509
H          H       0.12979   0.22163   0.03167   0.12731
H          H       0.86091   0.01766   0.06952   0.10655
H          H       0.99475   0.56665   0.22612   0.10007
H          H       0.16849   0.57219   0.08417   0.12243
H          H       0.19538   0.39476   0.10523   0.10890
H          H       0.07095   0.73111   0.25413   0.11526
H          H       0.90436   0.84459   0.10739   0.11340
H          H       0.90633   0.90217   0.31795   0.12579
H          H       0.04152   0.88384   0.32098   0.13547
H          H       0.99226   0.98405   0.30058   0.13700
H          H       0.97234   0.59108   0.06055   0.13187
H          H       0.93169   0.69407   0.04021   0.13348
H          H       0.06482   0.66812   0.04340   0.12806
H          H       0.75861   0.93302   0.26369   0.09887
H          H       0.94934   0.04193   0.15832   0.12212
H          H       0.78810   0.17074   0.19876   0.10526
H          H       0.39512   0.21718   0.12150   0.12234
H          H       0.45534   0.26454   0.23228   0.10929
H          H       0.60988   0.00883   0.14312   0.10115
H          H       0.35079   0.98430   0.05879   0.12454
H          H       0.70705   0.10668   0.08530   0.11942
H          H       0.73595   0.12085   0.01888   0.13451
H          H       0.64808   0.20117   0.06496   0.13799
H          H       0.38858   0.15864   0.30913   0.11720
H          H       0.33806   0.28968   0.41077   0.12061
H          H       0.64343   0.34271   0.36606   0.09651
H          H       0.72356   0.35880   0.45592   0.12092
H          H       0.69996   0.35681   0.52483   0.13500
H          H       0.62961   0.27840   0.46833   0.12815
H          H       0.36099   0.48256   0.43042   0.10662
H          H       0.49466   0.93336   0.27382   0.09987
H          H       0.66860   0.92805   0.41575   0.12260
H          H       0.69492   0.10572   0.39491   0.11148
H          H       0.57123   0.76883   0.24583   0.11562
H          H       0.40387   0.65582   0.39255   0.11314
H          H       0.40609   0.59778   0.18206   0.12543
H          H       0.54128   0.61612   0.17893   0.13538
H          H       0.49212   0.51596   0.19943   0.13671
H          H       0.47262   0.90915   0.43940   0.13250
H          H       0.43207   0.80614   0.45977   0.13338
H          H       0.56518   0.83207   0.45643   0.12794
H          H       0.25855   0.56678   0.23624   0.09856
H          H       0.44943   0.45865   0.34182   0.12204
H          H       0.28850   0.32933   0.30140   0.10497
C          C       0.05259   0.68172   0.64295  -0.13275
C          C       0.02165   0.70406   0.69746  -0.05432
C          C       0.93954   0.57211   0.65349   0.04321
C          C       0.00034   0.54986   0.55643   0.06684
C          C       0.08478   0.49122   0.53235  -0.23882
C          C       0.91400   0.55951   0.52411   0.09747
C          C       0.82595   0.62547   0.54943  -0.41997
C          C       0.06615   0.71697   0.83587  -0.04796
C          C       0.09250   0.78052   0.88610  -0.13968
C          C       0.93079   0.80766   0.86420   0.02126
C          C       0.00153   0.91879   0.95320   0.05015
C          C       0.91977   0.92819   0.99186   0.08571
C          C       0.83747   0.85154   0.98501  -0.41711
C          C       0.07949   0.99024   0.96194  -0.24698
C          C       0.95123   0.45654   0.80790   0.01561
C          C       0.86299   0.45546   0.88366  -0.14646
C          C       0.85077   0.54316   0.87268  -0.06449
C          C       0.96820   0.24396   0.77753  -0.25768
C          C       0.96445   0.30346   0.83316   0.06008
C          C       0.00921   0.27133   0.87621   0.09084
C          C       0.05875   0.18137   0.86073  -0.23806
C          C       0.06651   0.12462   0.80489   0.06135
C          C       0.01882   0.15470   0.76221   0.09781
C          C       0.01978   0.09288   0.70250  -0.41408
C          C       0.01016   0.33261   0.93605  -0.41148
C          C       0.21271   0.01845   0.75855   0.04398
C          C       0.11504   0.96106   0.81468  -0.12405
C          C       0.19472   0.89789   0.79386  -0.06908
C          C       0.55258   0.81824   0.85706  -0.13328
C          C       0.52160   0.79596   0.80256  -0.05315
C          C       0.43932   0.92770   0.84659   0.04367
C          C       0.50028   0.95002   0.94361   0.06547
C          C       0.58484   0.00855   0.96766  -0.23856
C          C       0.41388   0.94052   0.97594   0.09821
C          C       0.32575   0.87459   0.95065  -0.42022
C          C       0.56644   0.78289   0.66411  -0.04671
C          C       0.59262   0.71932   0.61389  -0.14019
C          C       0.43096   0.69234   0.63588   0.02164
C          C       0.50150   0.58110   0.54685   0.04916
C          C       0.41978   0.57179   0.50817   0.08659
C          C       0.33750   0.64842   0.51511  -0.41761
C          C       0.57947   0.50968   0.53809  -0.24696
C          C       0.45137   0.04327   0.69209   0.01484
C          C       0.36292   0.04423   0.61638  -0.14586
C          C       0.35103   0.95641   0.62724  -0.06535
C          C       0.46799   0.25588   0.72248  -0.25758
C          C       0.46422   0.19638   0.66686   0.05953
C          C       0.50913   0.22839   0.62380   0.09056
C          C       0.55884   0.31827   0.63928  -0.23639
C          C       0.56645   0.37510   0.69511   0.05844
C          C       0.51870   0.34510   0.73779   0.09863
C          C       0.51975   0.40697   0.79749  -0.41492
C          C       0.50994   0.16708   0.56399  -0.41179
C          C       0.71243   0.48171   0.74152   0.04339
C          C       0.61482   0.53851   0.68512  -0.12520
C          C       0.69431   0.60194   0.70596  -0.06774
C          C       0.94739   0.31825   0.35707  -0.13328
C          C       0.97828   0.29594   0.30255  -0.05377
C          C       0.06037   0.42790   0.34652   0.04363
C          C      -0.00036   0.45012   0.44358   0.06615
C          C       0.91521   0.50876   0.46766  -0.23828
C          C       0.08598   0.44045   0.47590   0.09769
C          C       0.17403   0.37450   0.45057  -0.41988
C          C       0.93383   0.28298   0.16413  -0.04808
C          C       0.90752   0.21952   0.11390  -0.13886
C          C       0.06919   0.19230   0.13582   0.02094
C          C      -0.00152   0.08123   0.04680   0.05059
C          C       0.08024   0.07183   0.00813   0.08573
C          C       0.16254   0.14846   0.01500  -0.41702
C          C       0.92051   0.00980   0.03805  -0.24731
C          C       0.04878   0.54338   0.19207   0.01499
C          C       0.13703   0.54443   0.11631  -0.14610
C          C       0.14925   0.45676   0.12729  -0.06393
C          C       0.03187   0.75596   0.22244  -0.25700
C          C       0.03560   0.69646   0.16680   0.05951
C          C       0.99087   0.72860   0.12375   0.09096
C          C       0.94141   0.81858   0.13922  -0.23780
C          C       0.93364   0.87532   0.19506   0.06094
C          C       0.98126   0.84522   0.23775   0.09793
C          C       0.98036   0.90705   0.29745  -0.41489
C          C       0.98986   0.66730   0.06392  -0.41091
C          C       0.78756   0.98156   0.24144   0.04377
C          C       0.88514   0.03889   0.18524  -0.12404
C          C       0.80550   0.10210   0.20610  -0.06834
C          C       0.44743   0.18168   0.14298  -0.13252
C          C       0.47853   0.20404   0.19747  -0.05424
C          C       0.56082   0.07234   0.15346   0.04422
C          C       0.49973   0.04985   0.05643   0.06591
C          C       0.41514   0.99138   0.03238  -0.23896
C          C       0.58612   0.05938   0.02410   0.09768
C          C       0.67425   0.12532   0.04939  -0.41978
C          C       0.43370   0.21705   0.33589  -0.04806
C          C       0.40746   0.28067   0.38609  -0.13872
C          C       0.56914   0.30771   0.36414   0.02185
C          C       0.49849   0.41886   0.45318   0.04969
C          C       0.58022   0.42818   0.49185   0.08647
C          C       0.66249   0.35154   0.48493  -0.41788
C          C       0.42054   0.49030   0.46192  -0.24702
C          C       0.54876   0.95665   0.30786   0.01511
C          C       0.63709   0.95574   0.38364  -0.14608
C          C       0.64906   0.04355   0.37276  -0.06691
C          C       0.53202   0.74408   0.27752  -0.25747
C          C       0.53579   0.80361   0.33314   0.05956
C          C       0.49087   0.77161   0.37619   0.09025
C          C       0.44114   0.68175   0.36074  -0.23622
C          C       0.43352   0.62489   0.30492   0.05851
C          C       0.48129   0.65486   0.26222   0.09809
C          C       0.48020   0.59296   0.20253  -0.41422
C          C       0.49012   0.83291   0.43601  -0.41126
C          C       0.28752   0.51827   0.25851   0.04376
C          C       0.38516   0.46148   0.31491  -0.12551
C          C       0.30569   0.39802   0.29405  -0.06783
N          N       0.25551   0.93375   0.75863  -0.21433
N          N       0.12644   0.03776   0.79201   0.02497
N          N       0.92725   0.39942   0.84215   0.04402
N          N       0.90549   0.54339   0.82539  -0.20469
N          N       0.95121   0.63510   0.70399  -0.21049
N          N       0.00007   0.59748   0.61484   0.01280
N          N       0.96524   0.73351   0.82249  -0.21009
N          N       0.00608   0.83843   0.90479   0.03883
N          N       0.75511   0.56642   0.74134  -0.21459
N          N       0.62630   0.46202   0.70795   0.02698
N          N       0.42706   0.10041   0.65790   0.04410
N          N       0.40585   0.95631   0.67452  -0.20547
N          N       0.45104   0.86481   0.79606  -0.21113
N          N       0.49995   0.90238   0.88520   0.01352
N          N       0.46554   0.76648   0.67756  -0.21170
N          N       0.50613   0.66148   0.59524   0.03982
N          N       0.74476   0.06626   0.24137  -0.21470
N          N       0.87375   0.96219   0.20792   0.02525
N          N       0.07275   0.60048   0.15780   0.04462
N          N       0.09454   0.45654   0.17459  -0.20489
N          N       0.04869   0.36492   0.29601  -0.21108
N          N      -0.00010   0.40249   0.38517   0.01268
N          N       0.03472   0.26643   0.17754  -0.21039
N          N       0.99392   0.16159   0.09520   0.03860
N          N       0.24487   0.43354   0.25868  -0.21487
N          N       0.37365   0.53798   0.29208   0.02712
N          N       0.57299   0.89954   0.34208   0.04459
N          N       0.59429   0.04360   0.32545  -0.20535
N          N       0.54916   0.13525   0.20397  -0.21127
N          N       0.50007   0.09754   0.11485   0.01324
N          N       0.53463   0.23348   0.32248  -0.21147
N          N       0.49392   0.33854   0.40476   0.03850

