data_crystal

_audit_creation_method 'AiiDA-DDEC plugin'

_cell_length_a        10.58795
_cell_length_b        21.71830
_cell_length_c        21.71452

_cell_angle_alpha     86.58005
_cell_angle_beta     75.83523
_cell_angle_gamma     75.83775

_symmetry_space_group_name_Hall 'P 1'
_symmetry_space_group_name_H-M  'P 1'

loop_
_symmetry_equiv_pos_as_xyz
 'x,y,z'

loop_
_atom_site_label
_atom_site_type_symbol
_atom_site_fract_x
_atom_site_fract_y
_atom_site_fract_z
_atom_site_charge
Eu         Eu      0.17929   0.92370   0.29223   1.66788
Eu         Eu      0.39526   0.07547   0.70803   1.66439
Eu         Eu      0.89696   0.70782   0.92403   1.66787
Eu         Eu      0.52863   0.29238   0.07561   1.66464
Eu         Eu      0.57078   0.20778   0.57632   1.66865
Eu         Eu      0.35414   0.79206   0.42496   1.66431
Eu         Eu      0.85280   0.57624   0.79217   1.66485
Eu         Eu      0.22146   0.42438   0.20766   1.66457
H          H       0.98801   0.16633   0.34107   0.15700
H          H       0.04964   0.27838   0.29309   0.13884
H          H       0.97747   0.83908   0.57920   0.15285
H          H       0.33607   0.88446   0.13626   0.11159
H          H       0.30339   0.85524   0.03187   0.12262
H          H       0.07245   0.85342   0.02353   0.11010
H          H       0.82597   0.86988   0.07657   0.12832
H          H       0.63968   0.90410   0.17089   0.13009
H          H       0.55810   0.94571   0.28294   0.13589
H          H       0.61542   0.98038   0.37878   0.11408
H          H       0.85648   0.97313   0.37706   0.10895
H          H       0.49534   0.83191   0.65798   0.15694
H          H       0.62209   0.72035   0.70696   0.13834
H          H       0.39493   0.16116   0.42075   0.15168
H          H       0.35628   0.11520   0.86357   0.11236
H          H       0.19007   0.14467   0.96791   0.12185
H          H       0.94873   0.14672   0.97650   0.11041
H          H       0.77156   0.13049   0.92366   0.12818
H          H       0.71356   0.09652   0.82948   0.13056
H          H       0.78594   0.05450   0.71737   0.13597
H          H       0.97391   0.01959   0.62158   0.11309
H          H       0.20616   0.02664   0.62307   0.10904
H          H       0.84667   0.65798   0.16645   0.15746
H          H       0.67335   0.70602   0.27887   0.13878
H          H       0.18421   0.42062   0.83890   0.15228
H          H       0.77960   0.86363   0.88469   0.11177
H          H       0.84152   0.96801   0.85526   0.12244
H          H       0.07424   0.97644   0.85334   0.11083
H          H       0.30431   0.92353   0.86973   0.12842
H          H       0.45657   0.82927   0.90386   0.12945
H          H       0.49650   0.71732   0.94561   0.13628
H          H       0.40449   0.62146   0.98045   0.11379
H          H       0.17073   0.62308   0.97323   0.10864
H          H       0.67398   0.34204   0.83191   0.15710
H          H       0.65882   0.29334   0.72036   0.13783
H          H       0.44367   0.57891   0.16121   0.15230
H          H       0.52772   0.13648   0.11542   0.11132
H          H       0.66487   0.03209   0.14469   0.12224
H          H       0.90421   0.02361   0.14653   0.11078
H          H       0.09766   0.07652   0.13016   0.12753
H          H       0.18956   0.17071   0.09599   0.12908
H          H       0.15905   0.28275   0.05428   0.13572
H          H       0.00583   0.37861   0.01963   0.11360
H          H       0.76638   0.37706   0.02688   0.10893
H          H       0.76212   0.15890   0.33369   0.15661
H          H       0.70047   0.20686   0.22163   0.13846
H          H       0.77261   0.92070   0.66096   0.15199
H          H       0.41395   0.36373   0.61557   0.11140
H          H       0.44666   0.46812   0.64475   0.12259
H          H       0.67761   0.47646   0.64657   0.11030
H          H       0.92409   0.42340   0.63013   0.12853
H          H       0.11034   0.32910   0.59592   0.13041
H          H       0.19192   0.21707   0.55430   0.13584
H          H       0.13457   0.12124   0.51962   0.11417
H          H       0.89352   0.12297   0.52689   0.10905
H          H       0.25473   0.84171   0.66818   0.15731
H          H       0.12734   0.79323   0.77990   0.13776
H          H       0.35506   0.07909   0.33886   0.15200
H          H       0.39341   0.63657   0.38475   0.11233
H          H       0.55971   0.53219   0.35532   0.12211
H          H       0.80098   0.52357   0.35335   0.11050
H          H       0.97823   0.57639   0.36955   0.12853
H          H       0.03629   0.67058   0.40351   0.13092
H          H       0.96403   0.78259   0.44549   0.13624
H          H       0.77608   0.87842   0.48041   0.11313
H          H       0.54381   0.87695   0.47334   0.10877
H          H       0.90305   0.33372   0.84212   0.15689
H          H       0.07622   0.22128   0.79409   0.13864
H          H       0.56553   0.66113   0.07963   0.15163
H          H       0.97039   0.61535   0.63636   0.11290
H          H       0.90856   0.64473   0.53198   0.12255
H          H       0.67581   0.64665   0.52354   0.11069
H          H       0.44578   0.63025   0.57646   0.12829
H          H       0.29347   0.59615   0.67074   0.12954
H          H       0.25356   0.55435   0.78271   0.13592
H          H       0.34554   0.51953   0.87859   0.11389
H          H       0.57928   0.52676   0.87698   0.10851
H          H       0.07649   0.66826   0.15809   0.15672
H          H       0.09142   0.77961   0.20696   0.13796
H          H       0.30613   0.33885   0.92099   0.15233
H          H       0.22227   0.38457   0.36354   0.11156
H          H       0.08509   0.35530   0.46794   0.12214
H          H       0.84574   0.35347   0.47642   0.11072
H          H       0.65233   0.36982   0.42349   0.12755
H          H       0.56045   0.40399   0.32927   0.12913
H          H       0.59099   0.44571   0.21722   0.13548
H          H       0.74423   0.48037   0.12134   0.11347
H          H       0.98370   0.47309   0.12290   0.10903
C          C       0.15490   0.05733   0.25889   0.49985
C          C       0.14693   0.12586   0.25805   0.07831
C          C       0.06264   0.17322   0.29884  -0.17125
C          C       0.09439   0.23088   0.27439  -0.16645
C          C       0.19664   0.21576   0.22043   0.07425
C          C       0.27056   0.25644   0.17630   0.57487
C          C       0.05267   0.89945   0.45367   0.56644
C          C       0.95616   0.92048   0.51437   0.08488
C          C       0.92754   0.88753   0.57067  -0.17012
C          C       0.23659   0.88473   0.13030   0.11595
C          C       0.21774   0.86767   0.07222  -0.13017
C          C       0.09020   0.86681   0.06766  -0.07412
C          C       0.98081   0.88371   0.12097   0.03667
C          C       0.84554   0.88450   0.11980  -0.12968
C          C       0.74238   0.90330   0.17194  -0.11977
C          C       0.76635   0.92234   0.22931   0.03689
C          C       0.66175   0.94389   0.28351  -0.06852
C          C       0.69304   0.96266   0.33662  -0.12602
C          C       0.82785   0.95894   0.33602   0.11628
C          C       0.89982   0.92043   0.23273   0.11884
C          C       0.00893   0.90106   0.17758   0.11265
C          C       0.47015   0.94159   0.73912   0.49825
C          C       0.53155   0.87330   0.74009   0.07981
C          C       0.53516   0.82543   0.70001  -0.17070
C          C       0.60061   0.76815   0.72488  -0.16648
C          C       0.63424   0.78400   0.77838   0.07546
C          C       0.70265   0.74353   0.82329   0.57377
C          C       0.40446   0.10156   0.54627   0.56788
C          C       0.39074   0.07991   0.48557   0.08398
C          C       0.38553   0.11264   0.42918  -0.16790
C          C       0.25113   0.11489   0.86963   0.11445
C          C       0.15705   0.13220   0.92768  -0.12826
C          C       0.02402   0.13322   0.93235  -0.07630
C          C       0.98480   0.11635   0.87911   0.03735
C          C       0.84898   0.11580   0.88038  -0.12794
C          C       0.81670   0.09710   0.82829  -0.12297
C          C       0.91717   0.07784   0.77089   0.03880
C          C       0.88837   0.05627   0.71677  -0.07069
C          C       0.99170   0.03733   0.66366  -0.12356
C          C       0.12234   0.04088   0.66417   0.11725
C          C       0.05233   0.07950   0.76740   0.11585
C          C       0.08696   0.09879   0.82249   0.11310
C          C       0.78937   0.73979   0.05772   0.50074
C          C       0.72873   0.74110   0.12634   0.07881
C          C       0.76545   0.70033   0.17368  -0.17132
C          C       0.67615   0.72481   0.23142  -0.16610
C          C       0.58909   0.77884   0.21638   0.07458
C          C       0.47420   0.82294   0.25711   0.57714
C          C       0.04932   0.54622   0.89841   0.56743
C          C       0.12337   0.48551   0.92011   0.08409
C          C       0.18509   0.42907   0.88744  -0.16802
C          C       0.87881   0.86965   0.88490   0.11439
C          C       0.91474   0.92770   0.86771  -0.13173
C          C       0.04313   0.93231   0.86679  -0.07366
C          C       0.13567   0.87906   0.88369   0.03600
C          C       0.27020   0.88029   0.88438  -0.12839
C          C       0.35463   0.82819   0.90313  -0.12088
C          C       0.31164   0.77082   0.92227   0.03851
C          C       0.39469   0.71668   0.94384  -0.06813
C          C       0.34459   0.66359   0.96271  -0.12502
C          C       0.21351   0.66413   0.95904   0.11768
C          C       0.18006   0.76736   0.92045   0.11700
C          C       0.09022   0.82246   0.90114   0.11322
C          C       0.58780   0.26130   0.94167   0.49922
C          C       0.59449   0.26043   0.87336   0.07882
C          C       0.63964   0.30030   0.82545  -0.17100
C          C       0.63116   0.27557   0.76816  -0.16444
C          C       0.58018   0.22249   0.78410   0.07473
C          C       0.54919   0.17798   0.74433   0.57646
C          C       0.49406   0.45377   0.10070   0.56695
C          C       0.52966   0.51446   0.07956   0.08445
C          C       0.50183   0.57067   0.11266  -0.17035
C          C       0.63318   0.13048   0.11518   0.11322
C          C       0.71016   0.07240   0.13228  -0.13040
C          C       0.84226   0.06777   0.13317  -0.07584
C          C       0.89831   0.12103   0.11632   0.03786
C          C       0.03479   0.11977   0.11555  -0.12757
C          C       0.08578   0.17185   0.09676  -0.12238
C          C       0.00441   0.22924   0.07770   0.03923
C          C       0.05478   0.28338   0.05614  -0.06863
C          C       0.97031   0.33652   0.03737  -0.12427
C          C       0.83606   0.33600   0.04107   0.11744
C          C       0.86749   0.23274   0.07960   0.11749
C          C       0.81353   0.17766   0.09894   0.11149
C          C       0.59513   0.24109   0.44272   0.50039
C          C       0.60312   0.24187   0.37418   0.07807
C          C       0.68747   0.20111   0.32680  -0.17108
C          C       0.65568   0.22555   0.26913  -0.16613
C          C       0.55334   0.27947   0.28427   0.07420
C          C       0.47943   0.32369   0.24367   0.57312
C          C       0.69717   0.04632   0.60133   0.56888
C          C       0.79350   0.98568   0.57985   0.08302
C          C       0.82246   0.92926   0.61254  -0.16940
C          C       0.51344   0.36970   0.61527   0.11629
C          C       0.53231   0.42778   0.63232  -0.13023
C          C       0.65984   0.43233   0.63318  -0.07410
C          C       0.76922   0.37902   0.61629   0.03666
C          C       0.90450   0.38019   0.61552  -0.12982
C          C       0.00764   0.32805   0.59672  -0.12002
C          C       0.98367   0.27069   0.57767   0.03718
C          C       0.08826   0.21651   0.55612  -0.06839
C          C       0.05696   0.16340   0.53735  -0.12593
C          C       0.92215   0.16400   0.54107   0.11614
C          C       0.85020   0.26728   0.57957   0.11868
C          C       0.74109   0.32242   0.59894   0.11263
C          C       0.27980   0.76069   0.55867   0.49907
C          C       0.21843   0.75964   0.62700   0.07884
C          C       0.21472   0.79975   0.67484  -0.17238
C          C       0.14887   0.77506   0.73218  -0.16531
C          C       0.11501   0.72164   0.71631   0.07410
C          C       0.04506   0.67676   0.75583   0.57342
C          C       0.34563   0.95378   0.39850   0.56850
C          C       0.35932   0.01447   0.42017   0.08414
C          C       0.36451   0.07081   0.38740  -0.16871
C          C       0.49863   0.63051   0.38499   0.11383
C          C       0.59269   0.57244   0.36775  -0.12903
C          C       0.72572   0.56774   0.36678  -0.07595
C          C       0.76500   0.62096   0.38363   0.03755
C          C       0.90082   0.61967   0.38421  -0.12870
C          C       0.93316   0.67174   0.40290  -0.12238
C          C       0.83271   0.72914   0.42214   0.03911
C          C       0.86157   0.78323   0.44372  -0.07030
C          C       0.75828   0.83635   0.46265  -0.12404
C          C       0.62762   0.83586   0.45911   0.11706
C          C       0.69753   0.73265   0.42048   0.11576
C          C       0.66286   0.67760   0.40115   0.11352
C          C       0.96090   0.44240   0.76023   0.49988
C          C       0.02131   0.37378   0.75901   0.07914
C          C       0.98431   0.32648   0.79977  -0.17153
C          C       0.07348   0.26871   0.77530  -0.16525
C          C       0.16072   0.28370   0.72131   0.07473
C          C       0.27565   0.24299   0.67724   0.57648
C          C       0.70045   0.60167   0.95379   0.56617
C          C       0.62639   0.58010   0.01456   0.08440
C          C       0.56475   0.61262   0.07108  -0.16793
C          C       0.87122   0.61511   0.63033   0.11387
C          C       0.83529   0.63229   0.57228  -0.13093
C          C       0.70690   0.63322   0.56768  -0.07443
C          C       0.61436   0.61633   0.62095   0.03585
C          C       0.47985   0.61563   0.61972  -0.12828
C          C       0.39540   0.59688   0.67183  -0.12142
C          C       0.43839   0.57774   0.72921   0.03893
C          C       0.35535   0.55615   0.78335  -0.06941
C          C       0.40543   0.53728   0.83646  -0.12557
C          C       0.53653   0.54094   0.83591   0.11804
C          C       0.56998   0.57955   0.73267   0.11681
C          C       0.65980   0.59888   0.67756   0.11349
C          C       0.16243   0.55836   0.23877   0.49953
C          C       0.15588   0.62664   0.23971   0.07827
C          C       0.11092   0.67459   0.19984  -0.16975
C          C       0.11914   0.73183   0.22474  -0.16599
C          C       0.16950   0.71587   0.27802   0.07502
C          C       0.19851   0.75570   0.32317   0.57253
C          C       0.25606   0.39914   0.04627   0.56610
C          C       0.22040   0.42036   0.98560   0.08499
C          C       0.24811   0.38740   0.92931  -0.17076
C          C       0.11680   0.38482   0.36954   0.11343
C          C       0.03981   0.36771   0.42763  -0.13029
C          C       0.90771   0.36683   0.43226  -0.07592
C          C       0.85168   0.38368   0.37899   0.03784
C          C       0.71520   0.38443   0.38024  -0.12768
C          C       0.66422   0.40322   0.32814  -0.12237
C          C       0.74561   0.42228   0.27074   0.03872
C          C       0.69525   0.44385   0.21659  -0.06835
C          C       0.77974   0.46262   0.16345  -0.12420
C          C       0.91399   0.45891   0.16396   0.11719
C          C       0.88253   0.42039   0.26725   0.11776
C          C       0.93646   0.40105   0.32235   0.11167
N          N       0.13559   0.90091   0.18150  -0.33906
N          N       0.92849   0.93781   0.28598  -0.32547
N          N       0.21756   0.09863   0.81852  -0.33694
N          N       0.15179   0.06194   0.71417  -0.32165
N          N       0.96363   0.81850   0.90113  -0.34012
N          N       0.13405   0.71410   0.93786  -0.32445
N          N       0.68295   0.18163   0.09898  -0.33536
N          N       0.78553   0.28600   0.06220  -0.32508
N          N       0.61443   0.31850   0.59909  -0.33940
N          N       0.82153   0.21404   0.56219  -0.32541
N          N       0.53225   0.68161   0.40126  -0.33837
N          N       0.59810   0.78587   0.43806  -0.32150
N          N       0.78639   0.59888   0.68150  -0.33918
N          N       0.61602   0.56207   0.78591  -0.32251
N          N       0.06703   0.40102   0.31838  -0.33547
N          N       0.96450   0.43780   0.21398  -0.32497
O          O       0.36661   0.23025   0.13118  -0.59816
O          O       0.23065   0.31584   0.18786  -0.64993
O          O       0.23064   0.15118   0.21006  -0.10007
O          O       0.24234   0.01897   0.21888  -0.52755
O          O       0.06828   0.03778   0.30303  -0.53078
O          O       0.05539   0.93598   0.40597  -0.59119
O          O       0.12465   0.84341   0.45610  -0.62925
O          O       0.72778   0.76955   0.86832  -0.59756
O          O       0.73087   0.68408   0.81233  -0.65078
O          O       0.59365   0.84865   0.78780  -0.09969
O          O       0.48075   0.98065   0.77810  -0.53327
O          O       0.40487   0.96025   0.69620  -0.52622
O          O       0.39373   0.06574   0.59443  -0.59452
O          O       0.42392   0.15739   0.54349  -0.62430
O          O       0.40308   0.86745   0.23085  -0.60247
O          O       0.45620   0.81188   0.31650  -0.64987
O          O       0.61972   0.78911   0.15182  -0.09902
O          O       0.73807   0.77850   0.01906  -0.53035
O          O       0.89761   0.69679   0.03829  -0.53107
O          O       0.01270   0.59447   0.93418  -0.59352
O          O       0.03203   0.54343   0.84272  -0.62645
O          O       0.49444   0.13445   0.77153  -0.59710
O          O       0.58126   0.18757   0.68456  -0.65268
O          O       0.55640   0.21289   0.84877  -0.09978
O          O       0.53841   0.22214   0.98060  -0.53098
O          O       0.63450   0.30412   0.96044  -0.52684
O          O       0.53868   0.40607   0.06421  -0.59370
O          O       0.42003   0.45627   0.15687  -0.62690
O          O       0.38350   0.36881   0.27006  -0.59753
O          O       0.51917   0.31225   0.18425  -0.64913
O          O       0.51936   0.28983   0.34886  -0.09946
O          O       0.50769   0.28112   0.48105  -0.52851
O          O       0.68175   0.19697   0.46229  -0.53152
O          O       0.69444   0.09423   0.56516  -0.59160
O          O       0.62539   0.04377   0.65742  -0.62946
O          O       0.02246   0.63178   0.72857  -0.59589
O          O       0.01284   0.68751   0.81548  -0.65358
O          O       0.15620   0.71206   0.65170  -0.09793
O          O       0.26920   0.72182   0.51951  -0.53269
O          O       0.34491   0.80368   0.54006  -0.52756
O          O       0.35642   0.90562   0.43425  -0.59337
O          O       0.32619   0.95655   0.34264  -0.62458
O          O       0.34739   0.26927   0.63306  -0.60268
O          O       0.29323   0.18358   0.68799  -0.64912
O          O       0.13035   0.34826   0.71107  -0.09935
O          O       0.01205   0.48101   0.72141  -0.52840
O          O       0.85289   0.46191   0.80332  -0.53007
O          O       0.73730   0.56572   0.90576  -0.59139
O          O       0.71757   0.65744   0.95649  -0.62623
O          O       0.24913   0.72871   0.36805  -0.59461
O          O       0.16877   0.81538   0.31261  -0.65182
O          O       0.19355   0.65118   0.28740  -0.09888
O          O       0.21160   0.51934   0.27792  -0.53082
O          O       0.11587   0.53971   0.19584  -0.52681
O          O       0.21137   0.43556   0.09402  -0.59380
O          O       0.33011   0.34301   0.04375  -0.62535
O          O       0.87475   0.98081   0.51946  -0.09287
O          O       0.37504   0.01947   0.48060  -0.09492
O          O       0.14409   0.48071   0.98050  -0.09395
O          O       0.60591   0.51970   0.01923  -0.09303

