data_crystal

_audit_creation_method 'AiiDA-DDEC plugin'

_cell_length_a        21.06322
_cell_length_b        21.21315
_cell_length_c        21.52730

_cell_angle_alpha     62.96240
_cell_angle_beta     63.72383
_cell_angle_gamma     82.51127

_symmetry_space_group_name_Hall 'P 1'
_symmetry_space_group_name_H-M  'P 1'

loop_
_symmetry_equiv_pos_as_xyz
 'x,y,z'

loop_
_atom_site_label
_atom_site_type_symbol
_atom_site_fract_x
_atom_site_fract_y
_atom_site_fract_z
_atom_site_charge
Zn         Zn      0.04165   0.44176   0.33452   0.84311
Zn         Zn      0.08252   0.26775   0.37595   0.98871
Zn         Zn      0.08618   0.11132   0.34659   0.83866
Zn         Zn      0.95835   0.55824   0.66547   0.84322
Zn         Zn      0.91748   0.73225   0.62405   0.98868
Zn         Zn      0.91382   0.88869   0.65341   0.83858
H          H       0.10618   0.79721   0.36579   0.28906
H          H       0.05520   0.72262   0.43866   0.29349
H          H       0.21765   0.47642   0.50544   0.10110
H          H       0.21412   0.24790   0.61005   0.11173
H          H       0.03655   0.62679   0.42942   0.13735
H          H       0.05651   0.51167   0.42367   0.09573
H          H       0.06636   0.94791   0.45073   0.10057
H          H       0.59293   0.29813   0.71988   0.10970
H          H       0.68145   0.41122   0.45543   0.11007
H          H       0.15695   0.47078   0.43180   0.10771
H          H       0.46190   0.45435   0.57155   0.11569
H          H       0.83402   0.35575   0.59182   0.10745
H          H       0.70332   0.34895   0.66509   0.11129
H          H       0.00404   0.58125   0.24018   0.10766
H          H       0.81244   0.42181   0.38257   0.12393
H          H       0.99300   0.98167   0.25126   0.13421
H          H       0.40205   0.29518   0.64286   0.11835
H          H       0.42838   0.43858   0.77048   0.12049
H          H       0.26580   0.49698   0.96017   0.10826
H          H       0.26669   0.44698   0.70625   0.12387
H          H       0.46214   0.29488   0.78535   0.12641
H          H       0.18935   0.27560   0.07697   0.10472
H          H       0.03451   0.84103   0.44828   0.12225
H          H       0.15166   0.24302   0.53807   0.11066
H          H       0.18700   0.31608   0.95591   0.11335
H          H       0.33385   0.28934   0.57699   0.10393
H          H       0.36653   0.44415   0.89537   0.10953
H          H       0.98349   0.70223   0.23570   0.13562
H          H       0.12072   0.28433   0.19893   0.12109
H          H       0.59277   0.46012   0.50664   0.10320
H          H       0.19939   0.44264   0.63850   0.10789
H          H       0.24798   0.31191   0.83021   0.11794
H          H       0.19542   0.50552   0.08413   0.11703
H          H       0.02368   0.08383   0.26526   0.11025
H          H       0.31244   0.22953   0.44623   0.11043
H          H       0.73985   0.05603   0.52798   0.11217
H          H       0.73957   0.25991   0.52819   0.09579
H          H       0.25761   0.19705   0.87222   0.10267
H          H       0.87072   0.07318   0.45643   0.10838
H          H       0.46784   0.06210   0.81044   0.12420
H          H       0.51329   0.21098   0.68887   0.11016
H          H       0.50461   0.05493   0.61657   0.12356
H          H       0.13235   0.15086   0.11698   0.11169
H          H       0.20069   0.02608   0.62851   0.11104
H          H       0.63506   0.06999   0.54426   0.11121
H          H       0.24559   0.23327   0.37516   0.12066
H          H       0.19264   0.14742   0.99031   0.10368
H          H       0.39411   0.19232   0.47969   0.10983
H          H       0.41378   0.06678   0.93584   0.10792
H          H       0.31019   0.19098   0.74845   0.11659
H          H       0.13275   0.03198   0.55727   0.10883
H          H       0.46223   0.19325   0.54672   0.12517
H          H       0.32692   0.11595   0.14095   0.11964
H          H       0.39055   0.12125   0.00958   0.10362
H          H       0.87039   0.27193   0.46354   0.10364
H          H       0.29535   0.05665   0.76536   0.12518
H          H       0.22470   0.05899   0.69888   0.11277
H          H       0.64342   0.22308   0.62139   0.10327
H          H       0.89382   0.20280   0.63421   0.28861
H          H       0.94481   0.27738   0.56134   0.29352
H          H       0.78235   0.52358   0.49456   0.10093
H          H       0.78588   0.75210   0.38995   0.11180
H          H       0.96345   0.37322   0.57058   0.13734
H          H       0.94349   0.48834   0.57633   0.09571
H          H       0.93364   0.05209   0.54927   0.10048
H          H       0.40708   0.70188   0.28012   0.10961
H          H       0.31856   0.58878   0.54457   0.11020
H          H       0.84305   0.52922   0.56819   0.10771
H          H       0.53810   0.54565   0.42845   0.11570
H          H       0.16599   0.64425   0.40818   0.10738
H          H       0.29668   0.65106   0.33491   0.11126
H          H       0.99596   0.41875   0.75982   0.10779
H          H       0.18756   0.57820   0.61743   0.12393
H          H       0.00700   0.01834   0.74873   0.13434
H          H       0.59795   0.70482   0.35714   0.11837
H          H       0.57162   0.56143   0.22952   0.12017
H          H       0.73421   0.50302   0.03983   0.10813
H          H       0.73331   0.55302   0.29375   0.12651
H          H       0.53786   0.70512   0.21465   0.12611
H          H       0.81065   0.72440   0.92302   0.10484
H          H       0.96549   0.15897   0.55172   0.12230
H          H       0.84835   0.75699   0.46193   0.11076
H          H       0.81301   0.68392   0.04409   0.11352
H          H       0.66615   0.71066   0.42301   0.10404
H          H       0.63347   0.55585   0.10463   0.10943
H          H       0.01651   0.29777   0.76429   0.13562
H          H       0.87928   0.71567   0.80107   0.12114
H          H       0.40724   0.53988   0.49336   0.10315
H          H       0.80062   0.55737   0.36150   0.10791
H          H       0.75203   0.68810   0.16979   0.11610
H          H       0.80459   0.49448   0.91587   0.11694
H          H       0.97633   0.91617   0.73474   0.11016
H          H       0.68757   0.77048   0.55377   0.11052
H          H       0.26015   0.94397   0.47202   0.11231
H          H       0.26044   0.74009   0.47181   0.09572
H          H       0.74240   0.80295   0.12778   0.10278
H          H       0.12928   0.92683   0.54357   0.10841
H          H       0.53216   0.93791   0.18956   0.12415
H          H       0.48672   0.78902   0.31112   0.11012
H          H       0.49539   0.94507   0.38343   0.12369
H          H       0.86765   0.84914   0.88302   0.11177
H          H       0.79931   0.97393   0.37148   0.11109
H          H       0.36494   0.93001   0.45574   0.11125
H          H       0.75441   0.76673   0.62484   0.12062
H          H       0.80736   0.85258   0.00969   0.10383
H          H       0.60589   0.80768   0.52031   0.10977
H          H       0.58622   0.93322   0.06416   0.10787
H          H       0.68981   0.80902   0.25155   0.11677
H          H       0.86725   0.96802   0.44273   0.10904
H          H       0.53777   0.80675   0.45328   0.12498
H          H       0.67308   0.88405   0.85905   0.11958
H          H       0.60945   0.87875   0.99042   0.10357
H          H       0.12961   0.72807   0.53646   0.10349
H          H       0.70465   0.94335   0.23464   0.12526
H          H       0.77531   0.94101   0.30112   0.11299
H          H       0.35658   0.77692   0.37861   0.10305
C          C       0.00968   0.67564   0.33083   0.08504
C          C       0.22114   0.36247   0.56241   0.07629
C          C       0.99707   0.74617   0.32673   0.16556
C          C       0.15048   0.35662   0.47976  -0.06854
C          C       0.01305   0.90265   0.34707   0.07382
C          C       0.68167   0.38100   0.56580   0.07015
C          C       0.20265   0.42517   0.51328  -0.13787
C          C       0.26113   0.36551   0.60287   0.05033
C          C       0.11067   0.40177   0.22231   0.60017
C          C       0.99685   0.84498   0.33596   0.15360
C          C       0.20205   0.29695   0.57075  -0.13554
C          C       0.91071   0.39733   0.43879   0.55055
C          C       0.02988   0.62071   0.38507  -0.17423
C          C       0.23240   0.38580   0.00919   0.08049
C          C       0.04069   0.55553   0.38282   0.09325
C          C       0.60359   0.37854   0.60731   0.04111
C          C       0.33887   0.37105   0.67972   0.16702
C          C       0.04952   0.95293   0.40776   0.11733
C          C       0.56497   0.33350   0.68689  -0.12090
C          C       0.71437   0.40088   0.48561  -0.14307
C          C       0.16857   0.42221   0.47199  -0.09160
C          C       0.11735   0.35401   0.43239   0.59823
C          C       0.49089   0.41997   0.60367  -0.17704
C          C       0.27144   0.38114   0.93522   0.04460
C          C       0.34268   0.37471   0.79126   0.17483
C          C       0.79989   0.36855   0.56250  -0.09291
C          C       0.72629   0.36418   0.60343  -0.14469
C          C       0.01124   0.59442   0.28013   0.08384
C          C       0.78789   0.40628   0.44440  -0.09053
C          C       0.00843   0.97256   0.29642  -0.15855
C          C       0.35745   0.32726   0.64213  -0.17622
C          C       0.37528   0.41208   0.81087  -0.18789
C          C       0.23457   0.45030   0.01264  -0.15056
C          C       0.15349   0.39599   0.14936  -0.06806
C          C       0.28161   0.41285   0.67747  -0.18500
C          C       0.45296   0.37421   0.68278   0.17449
C          C       0.49107   0.33099   0.72422  -0.17329
C          C       0.19053   0.32645   0.07757  -0.13648
C          C       0.03298   0.89323   0.40471  -0.19084
C          C       0.83167   0.39055   0.48234  -0.04358
C          C       0.16664   0.29395   0.53063  -0.08478
C          C       0.23989   0.34309   0.91537  -0.11572
C          C       0.31883   0.32418   0.60504  -0.12209
C          C       0.33999   0.41528   0.88138  -0.11939
C          C      -0.00022   0.66110   0.27789  -0.15412
C          C       0.15197   0.33118   0.14685  -0.07323
C          C       0.56447   0.42216   0.56713  -0.11738
C          C       0.24372   0.41011   0.63941  -0.12039
C          C       0.27426   0.34027   0.84478  -0.18885
C          C       0.19519   0.45556   0.08152  -0.08955
C          C       0.02504   0.02890   0.30403   0.08699
C          C       0.14584   0.13591   0.41828   0.58165
C          C       0.72874   0.15626   0.53475   0.07623
C          C       0.18516   0.13276   0.46160  -0.05718
C          C       0.87864   0.17347   0.45625  -0.06260
C          C       0.27452   0.18510   0.47023  -0.13791
C          C       0.95740   0.18236   0.41780   0.60161
C          C       0.29636   0.13424   0.98990   0.06815
C          C       0.76747   0.10446   0.51277  -0.13484
C          C       0.76722   0.21731   0.51530  -0.14080
C          C       0.30291   0.16624   0.85994  -0.11951
C          C       0.30355   0.12563   0.58359   0.03504
C          C       0.26264   0.12717   0.54245   0.07821
C          C       0.84125   0.11343   0.47295  -0.08989
C          C       0.65046   0.14750   0.57696   0.04823
C          C       0.42167   0.09165   0.82434  -0.18134
C          C       0.54024   0.17945   0.65799  -0.17759
C          C       0.53548   0.09186   0.61705  -0.17844
C          C       0.50017   0.13164   0.65793   0.15976
C          C       0.33108   0.13246   0.91442   0.04279
C          C       0.18884   0.14409   0.09287  -0.11133
C          C       0.21065   0.07195   0.57336  -0.14284
C          C       0.22597   0.13411   0.13654  -0.02882
C          C       0.60919   0.10042   0.57672  -0.11857
C          C       0.38386   0.12478   0.66080   0.16967
C          C       0.23644   0.18811   0.43048  -0.07982
C          C       0.22318   0.14303   0.02145  -0.14352
C          C       0.37120   0.16319   0.54244  -0.12286
C          C       0.39147   0.09529   0.89456  -0.12471
C          C       0.33261   0.16322   0.78963  -0.18272
C          C       0.17272   0.07457   0.53343  -0.08755
C          C       0.39265   0.12584   0.77078   0.16644
C          C       0.41037   0.16351   0.57991  -0.18473
C          C       0.29867   0.12448   0.10633  -0.09312
C          C       0.18663   0.12912   0.21598   0.54522
C          C       0.33359   0.12603   0.03342  -0.14439
C          C       0.84089   0.22513   0.47798  -0.09027
C          C       0.31652   0.08673   0.70279  -0.17974
C          C       0.27721   0.08774   0.66473  -0.11496
C          C       0.61397   0.18646   0.61895  -0.11627
C          C       0.99032   0.32436   0.66917   0.08505
C          C       0.77886   0.63753   0.43759   0.07635
C          C       0.00293   0.25383   0.67327   0.16545
C          C       0.84953   0.64338   0.52024  -0.06858
C          C       0.98695   0.09735   0.65293   0.07393
C          C       0.31833   0.61900   0.43420   0.07022
C          C       0.79735   0.57483   0.48672  -0.13790
C          C       0.73887   0.63450   0.39713   0.05033
C          C       0.88933   0.59824   0.77769   0.60026
C          C       0.00315   0.15502   0.66404   0.15349
C          C       0.79795   0.70305   0.42925  -0.13568
C          C       0.08930   0.60268   0.56121   0.55061
C          C       0.97012   0.37929   0.61493  -0.17439
C          C       0.76760   0.61420   0.99081   0.08036
C          C       0.95931   0.44447   0.61718   0.09330
C          C       0.39642   0.62147   0.39269   0.04092
C          C       0.66114   0.62895   0.32028   0.16714
C          C       0.95048   0.04707   0.59224   0.11722
C          C       0.43504   0.66650   0.31311  -0.12082
C          C       0.28563   0.59913   0.51439  -0.14307
C          C       0.83143   0.57779   0.52801  -0.09166
C          C       0.88266   0.64600   0.56761   0.59827
C          C       0.50911   0.58004   0.39633  -0.17716
C          C       0.72856   0.61886   0.06477   0.04470
C          C       0.65732   0.62530   0.20874   0.17481
C          C       0.20012   0.63145   0.43750  -0.09305
C          C       0.27371   0.63582   0.39657  -0.14456
C          C       0.98876   0.40558   0.71987   0.08384
C          C       0.21211   0.59373   0.55559  -0.09064
C          C       0.99158   0.02744   0.70358  -0.15861
C          C       0.64255   0.67275   0.35787  -0.17634
C          C       0.62472   0.58793   0.18913  -0.18764
C          C       0.76543   0.54970   0.98736  -0.15049
C          C       0.84651   0.60402   0.85064  -0.06842
C          C       0.71839   0.58715   0.32253  -0.18754
C          C       0.54704   0.62579   0.31722   0.17454
C          C       0.50894   0.66901   0.27578  -0.17264
C          C       0.80947   0.67355   0.92243  -0.13644
C          C       0.96703   0.10677   0.59529  -0.19078
C          C       0.16833   0.60945   0.51766  -0.04349
C          C       0.83336   0.70605   0.46937  -0.08459
C          C       0.76011   0.65691   0.08463  -0.11561
C          C       0.68117   0.67582   0.39495  -0.12202
C          C       0.66001   0.58472   0.11862  -0.11967
C          C       0.00022   0.33891   0.72211  -0.15417
C          C       0.84803   0.66882   0.85315  -0.07283
C          C       0.43553   0.57784   0.43287  -0.11740
C          C       0.75628   0.58989   0.36059  -0.12035
C          C       0.72574   0.65974   0.15522  -0.18739
C          C       0.80481   0.54445   0.91848  -0.08959
C          C       0.97496   0.97111   0.69597   0.08704
C          C       0.85416   0.86409   0.58172   0.58127
C          C       0.27127   0.84374   0.46525   0.07623
C          C       0.81484   0.86725   0.53840  -0.05699
C          C       0.12136   0.82654   0.54375  -0.06275
C          C       0.72549   0.81491   0.52977  -0.13834
C          C       0.04260   0.81764   0.58220   0.60163
C          C       0.70364   0.86576   0.01010   0.06822
C          C       0.23254   0.89554   0.48723  -0.13477
C          C       0.23278   0.78269   0.48470  -0.14078
C          C       0.69709   0.83376   0.14006  -0.11937
C          C       0.69645   0.87437   0.41641   0.03504
C          C       0.73736   0.87283   0.45755   0.07832
C          C       0.15876   0.88657   0.52705  -0.08978
C          C       0.34955   0.85250   0.42304   0.04828
C          C       0.57833   0.90835   0.17566  -0.18134
C          C       0.45976   0.82055   0.34201  -0.17758
C          C       0.46453   0.90814   0.38295  -0.17837
C          C       0.49983   0.86837   0.34207   0.15971
C          C       0.66892   0.86755   0.08558   0.04284
C          C       0.81116   0.85592   0.90713  -0.11126
C          C       0.78935   0.92805   0.42664  -0.14288
C          C       0.77404   0.86590   0.86346  -0.02880
C          C       0.39081   0.89959   0.42328  -0.11850
C          C       0.61615   0.87522   0.33920   0.16966
C          C       0.76357   0.81190   0.56952  -0.07993
C          C       0.77682   0.85697   0.97855  -0.14358
C          C       0.62880   0.83681   0.45756  -0.12292
C          C       0.60853   0.90471   0.10544  -0.12475
C          C       0.66739   0.83678   0.21037  -0.18296
C          C       0.82729   0.92543   0.46657  -0.08754
C          C       0.60735   0.87416   0.22922   0.16654
C          C       0.58964   0.83649   0.42009  -0.18473
C          C       0.70133   0.87552   0.89367  -0.09321
C          C       0.81337   0.87088   0.78402   0.54518
C          C       0.66642   0.87397   0.96658  -0.14452
C          C       0.15912   0.77487   0.52202  -0.09032
C          C       0.68348   0.91327   0.29721  -0.17968
C          C       0.72279   0.91226   0.33527  -0.11497
C          C       0.38603   0.81355   0.38104  -0.11631
N          N       0.02281   0.77887   0.35475   0.10655
N          N       0.04631   0.01955   0.35826  -0.22286
N          N       0.95776   0.85149   0.29877  -0.22923
N          N       0.07671   0.75418   0.37964  -0.50834
N          N       0.37776   0.37235   0.71898  -0.14476
N          N       0.03219   0.54218   0.33127  -0.22553
N          N       0.95729   0.78980   0.29382  -0.22466
N          N       0.42480   0.12408   0.69823  -0.12117
N          N       0.97719   0.22113   0.64525   0.10664
N          N       0.95369   0.98045   0.64174  -0.22293
N          N       0.04224   0.14851   0.70123  -0.22927
N          N       0.92329   0.24582   0.62036  -0.50807
N          N       0.62225   0.62765   0.28102  -0.14488
N          N       0.96781   0.45782   0.66873  -0.22544
N          N       0.04272   0.21020   0.70618  -0.22434
N          N       0.57521   0.87592   0.30177  -0.12119
O          O       0.10462   0.46247   0.22231  -0.51621
O          O       0.09760   0.29210   0.44644  -0.57200
O          O       0.93748   0.42562   0.36417  -0.54681
O          O       0.07684   0.34532   0.28522  -0.60416
O          O       0.94939   0.37708   0.47465  -0.57534
O          O       0.11168   0.41272   0.38063  -0.55418
O          O       0.98605   0.22208   0.43114  -0.56932
O          O       0.14864   0.19529   0.35968  -0.59175
O          O       0.11108   0.08014   0.43714  -0.51018
O          O       0.12656   0.15849   0.23064  -0.56874
O          O       0.98993   0.14969   0.37725  -0.54865
O          O       0.20863   0.09487   0.26671  -0.53828
O          O       0.89538   0.53753   0.77769  -0.51643
O          O       0.90241   0.70790   0.55356  -0.57180
O          O       0.06252   0.57438   0.63583  -0.54682
O          O       0.92317   0.65468   0.71478  -0.60403
O          O       0.05061   0.62292   0.52535  -0.57547
O          O       0.88832   0.58728   0.61937  -0.55437
O          O       0.01396   0.77792   0.56886  -0.56946
O          O       0.85136   0.80471   0.64032  -0.59179
O          O       0.88892   0.91986   0.56286  -0.50975
O          O       0.87344   0.84151   0.76936  -0.56875
O          O       0.01008   0.85031   0.62275  -0.54848
O          O       0.79138   0.90513   0.73329  -0.53831

