data_crystal

_audit_creation_method 'AiiDA-DDEC plugin'

_cell_length_a         7.16532
_cell_length_b        18.92285
_cell_length_c        37.09424

_cell_angle_alpha     88.92156
_cell_angle_beta     84.42530
_cell_angle_gamma     79.13404

_symmetry_space_group_name_Hall 'P 1'
_symmetry_space_group_name_H-M  'P 1'

loop_
_symmetry_equiv_pos_as_xyz
 'x,y,z'

loop_
_atom_site_label
_atom_site_type_symbol
_atom_site_fract_x
_atom_site_fract_y
_atom_site_fract_z
_atom_site_charge
Cd         Cd      0.04804   0.76293   0.13991   1.02412
Cd         Cd      0.59430   0.80924   0.12766   1.11829
Cd         Cd      0.95115   0.23726   0.86022   1.01860
Cd         Cd      0.53231   0.19201   0.87254   1.11397
Cd         Cd      0.93548   0.26292   0.35980   1.02020
Cd         Cd      0.47164   0.30820   0.37198   1.11514
Cd         Cd      0.55720   0.73759   0.64003   1.02040
Cd         Cd      0.15197   0.69171   0.62710   1.11723
H          H       0.86597   0.34506   0.11513   0.08096
H          H       0.91502   0.34684   0.16152   0.09194
H          H       0.62270   0.41968   0.13468   0.10791
H          H       0.36135   0.52561   0.13820   0.11417
H          H       0.77375   0.66473   0.13220   0.10751
H          H       0.03550   0.55988   0.12919   0.13405
H          H       0.13636   0.28518   0.06763   0.08373
H          H       0.19237   0.37132   0.07600   0.09081
H          H       0.24037   0.31517   0.01419   0.12244
H          H       0.40793   0.29620   0.95266   0.11676
H          H       0.94384   0.22741   0.99719   0.11769
H          H       0.77781   0.24768   0.05977   0.12033
H          H       0.44865   0.28332   0.14092   0.07991
H          H       0.34154   0.37673   0.14035   0.08802
H          H       0.61959   0.33428   0.17565   0.10072
H          H       0.83606   0.31453   0.22493   0.11095
H          H       0.38281   0.25693   0.29753   0.10163
H          H       0.16302   0.27977   0.24915   0.14046
H          H       0.27192   0.19038   0.12158   0.08543
H          H       0.12100   0.21857   0.16203   0.09272
H          H       0.19654   0.09390   0.14639   0.12195
H          H       0.11235   0.97317   0.15047   0.12016
H          H       0.58829   0.05221   0.10367   0.11690
H          H       0.66926   0.17495   0.09945   0.11839
H          H       0.32371   0.65559   0.88516   0.08274
H          H       0.41942   0.65412   0.83870   0.09295
H          H       0.17532   0.58086   0.86505   0.10773
H          H       0.02387   0.47460   0.86161   0.11377
H          H       0.56963   0.33629   0.86783   0.10842
H          H       0.72261   0.44115   0.87096   0.13391
H          H       0.48818   0.71637   0.93234   0.08503
H          H       0.63565   0.62961   0.92416   0.09141
H          H       0.57098   0.68495   0.98620   0.12236
H          H       0.65774   0.70538   0.04751   0.11864
H          H       0.16731   0.77522   0.00227   0.11689
H          H       0.08419   0.75348   0.93993   0.11990
H          H       0.87101   0.71668   0.85836   0.08089
H          H       0.85494   0.62341   0.85922   0.08773
H          H       0.12340   0.66618   0.82384   0.10135
H          H       0.36936   0.68609   0.77463   0.11108
H          H       0.93199   0.74250   0.70187   0.10178
H          H       0.68637   0.71972   0.75032   0.14009
H          H       0.57969   0.81045   0.87944   0.08617
H          H       0.50851   0.78256   0.83783   0.09238
H          H       0.43653   0.90654   0.85282   0.12366
H          H       0.23695   0.02734   0.84937   0.12137
H          H       0.74388   0.94839   0.89594   0.11649
H          H       0.94230   0.82531   0.89957   0.11817
H          H       0.73029   0.84462   0.38504   0.08231
H          H       0.82431   0.84672   0.33859   0.09029
H          H       0.50493   0.91906   0.36553   0.10848
H          H       0.24597   0.02465   0.36192   0.11258
H          H       0.65109   0.16443   0.36722   0.10745
H          H       0.91058   0.06012   0.37046   0.13478
H          H       0.95475   0.78569   0.43221   0.08554
H          H       0.01990   0.87174   0.42366   0.09108
H          H       0.00475   0.81551   0.48566   0.12155
H          H       0.11007   0.79600   0.54720   0.11749
H          H       0.69059   0.72694   0.50281   0.11794
H          H       0.58825   0.74797   0.44020   0.12004
H          H       0.33914   0.78449   0.35868   0.08085
H          H       0.22889   0.87759   0.35891   0.08826
H          H       0.54413   0.83454   0.32376   0.10033
H          H       0.81031   0.81473   0.27456   0.11156
H          H       0.43024   0.75696   0.20198   0.10126
H          H       0.16186   0.77970   0.25034   0.13954
H          H       0.14286   0.69043   0.37855   0.08663
H          H       0.03365   0.71869   0.33797   0.09233
H          H       0.09247   0.59412   0.35358   0.12254
H          H       0.01318   0.47337   0.34976   0.11980
H          H       0.44190   0.55216   0.39669   0.11682
H          H       0.51835   0.67496   0.40064   0.11927
H          H       0.96302   0.15474   0.61483   0.08233
H          H       0.01174   0.15293   0.66134   0.09270
H          H       0.79236   0.08104   0.63469   0.10748
H          H       0.63395   0.97579   0.63815   0.11240
H          H       0.18310   0.83542   0.63207   0.10702
H          H       0.34276   0.93946   0.62897   0.13569
H          H       0.17468   0.21425   0.56780   0.08423
H          H       0.31762   0.12831   0.57633   0.09115
H          H       0.30784   0.18443   0.51435   0.12216
H          H       0.45401   0.20426   0.45278   0.11912
H          H       0.92074   0.27445   0.49682   0.11784
H          H       0.77748   0.25344   0.55942   0.11928
H          H       0.48425   0.21565   0.64139   0.08202
H          H       0.46713   0.12253   0.64110   0.08765
H          H       0.70382   0.16558   0.67626   0.10061
H          H       0.90039   0.18543   0.72551   0.11131
H          H       0.38976   0.24293   0.79808   0.10205
H          H       0.19286   0.22022   0.74967   0.13911
H          H       0.21346   0.30961   0.62137   0.08551
H          H       0.09212   0.28137   0.66199   0.09238
H          H       0.04222   0.40572   0.64641   0.12308
H          H       0.84001   0.52656   0.64998   0.12004
H          H       0.39352   0.44800   0.60325   0.11476
H          H       0.59541   0.32509   0.59947   0.11842
C          C       0.16131   0.30466   0.12403   0.05710
C          C       0.96940   0.35542   0.13340  -0.03202
C          C       0.84654   0.48305   0.13143   0.27270
C          C       0.65613   0.47326   0.13413  -0.24311
C          C       0.50916   0.53294   0.13591  -0.05460
C          C       0.54790   0.60316   0.13489  -0.08277
C          C       0.73979   0.61156   0.13250  -0.05633
C          C       0.88785   0.55260   0.13070  -0.19594
C          C       0.38479   0.66394   0.13708   0.58794
C          C       0.22005   0.31408   0.08347  -0.03416
C          C       0.49894   0.28017   0.04099   0.25882
C          C       0.39349   0.29544   0.01096  -0.23381
C          C       0.48802   0.28476   0.97624  -0.05829
C          C       0.68560   0.25961   0.97107  -0.07295
C          C       0.79025   0.24645   0.00146  -0.06802
C          C       0.69826   0.25715   0.03611  -0.21854
C          C       0.78441   0.24724   0.93409   0.58169
C          C       0.31538   0.32229   0.14678  -0.03054
C          C       0.37803   0.30792   0.20943   0.26691
C          C       0.56769   0.31755   0.20227  -0.23954
C          C       0.68895   0.30643   0.22991  -0.06317
C          C       0.62392   0.28509   0.26454  -0.07890
C          C       0.43310   0.27529   0.27104  -0.07160
C          C       0.31046   0.28693   0.24394  -0.19858
C          C       0.75201   0.27382   0.29398   0.57955
C          C       0.14089   0.22646   0.13258  -0.03805
C          C       0.93983   0.14225   0.12157   0.26233
C          C       0.06398   0.08573   0.13669  -0.23053
C          C       0.01652   0.01762   0.13914  -0.05241
C          C       0.84593   0.00452   0.12729  -0.06861
C          C       0.72063   0.06199   0.11293  -0.07039
C          C       0.76639   0.13029   0.11029  -0.21727
C          C       0.80851   0.92963   0.12989   0.59591
C          C       0.58808   0.69608   0.87595   0.05824
C          C       0.45530   0.64550   0.86675  -0.03517
C          C       0.45910   0.51785   0.86854   0.27325
C          C       0.26175   0.52734   0.86572  -0.24209
C          C       0.17659   0.46750   0.86396  -0.05507
C          C       0.28479   0.39738   0.86502  -0.08421
C          C       0.48244   0.38930   0.86747  -0.05442
C          C       0.56934   0.44840   0.86934  -0.19693
C          C       0.18530   0.33632   0.86288   0.58639
C          C       0.61590   0.68677   0.91655  -0.03749
C          C       0.81980   0.72054   0.95899   0.25792
C          C       0.70047   0.70539   0.98922  -0.23209
C          C       0.74962   0.71687   0.02387  -0.06113
C          C       0.91632   0.74274   0.02886  -0.07122
C          C       0.03742   0.75566   0.99826  -0.06804
C          C       0.99073   0.74417   0.96369  -0.21842
C          C       0.96653   0.75563   0.06578   0.57893
C          C       0.78128   0.67789   0.85285  -0.03124
C          C       0.88956   0.69208   0.79009   0.26701
C          C       0.08158   0.68279   0.79720  -0.24016
C          C       0.21935   0.69394   0.76957  -0.06079
C          C       0.16791   0.71492   0.73489  -0.08199
C          C       0.97389   0.72446   0.72840  -0.06822
C          C       0.83559   0.71284   0.75556  -0.20158
C          C       0.31499   0.72619   0.70553   0.57988
C          C       0.49971   0.77429   0.86730  -0.03818
C          C       0.20240   0.85796   0.87743   0.26221
C          C       0.28629   0.91452   0.86262  -0.23123
C          C       0.17394   0.98272   0.86045  -0.05469
C          C       0.97850   0.99589   0.87233  -0.06923
C          C       0.89513   0.93848   0.88649  -0.07078
C          C       0.00581   0.87006   0.88884  -0.21688
C          C       0.87056   0.07101   0.86999   0.59739
C          C       0.03508   0.80485   0.37579   0.05906
C          C       0.85134   0.85530   0.36666  -0.03113
C          C       0.72472   0.98282   0.36851   0.27243
C          C       0.53710   0.97278   0.36593  -0.24413
C          C       0.39133   0.03229   0.36411  -0.05338
C          C       0.42842   0.10264   0.36494  -0.08394
C          C       0.61790   0.11122   0.36712  -0.05576
C          C       0.76468   0.05246   0.36903  -0.19586
C          C       0.26732   0.16352   0.36279   0.58700
C          C       0.05454   0.81444   0.41630  -0.03771
C          C       0.29027   0.78024   0.45889   0.25902
C          C       0.15452   0.79547   0.48890  -0.23194
C          C       0.21395   0.78450   0.52365  -0.05997
C          C       0.40621   0.75908   0.52888  -0.07344
C          C       0.54144   0.74608   0.49849  -0.06920
C          C       0.48460   0.75715   0.46383  -0.21884
C          C       0.46804   0.74644   0.56586   0.58033
C          C       0.21081   0.82286   0.35272  -0.03168
C          C       0.33675   0.80801   0.29005   0.26690
C          C       0.51922   0.81770   0.29714  -0.24061
C          C       0.66837   0.80655   0.26951  -0.06203
C          C       0.63839   0.78515   0.23487  -0.08021
C          C       0.45396   0.77531   0.22845  -0.07011
C          C       0.30402   0.78691   0.25556  -0.19935
C          C       0.79582   0.77378   0.20530   0.57997
C          C       0.02338   0.72657   0.36742  -0.03935
C          C       0.81096   0.64233   0.37852   0.26225
C          C       0.95040   0.58589   0.36343  -0.23087
C          C       0.90577   0.51770   0.36109  -0.05212
C          C       0.72349   0.50436   0.37301  -0.06861
C          C       0.58360   0.56182   0.38734  -0.07138
C          C       0.62632   0.63022   0.38988  -0.21848
C          C       0.68896   0.42933   0.37023   0.59734
C          C       0.21777   0.19518   0.62420   0.05777
C          C       0.07597   0.14442   0.63329  -0.03520
C          C       0.07869   0.01706   0.63134   0.26971
C          C       0.87826   0.02730   0.63408  -0.24297
C          C       0.78923   0.96790   0.63584  -0.05044
C          C       0.89673   0.89745   0.63483  -0.08723
C          C       0.09698   0.88870   0.63240  -0.05206
C          C       0.18776   0.94729   0.63054  -0.19787
C          C       0.79409   0.83660   0.63705   0.58570
C          C       0.28741   0.18562   0.58368  -0.03714
C          C       0.53112   0.22022   0.54100   0.25890
C          C       0.44051   0.20475   0.51106  -0.23303
C          C       0.52302   0.21587   0.47626  -0.06085
C          C       0.69496   0.24150   0.47080  -0.07072
C          C       0.78677   0.25495   0.50110  -0.06972
C          C       0.70670   0.24386   0.53585  -0.21672
C          C       0.77883   0.25351   0.43350   0.58051
C          C       0.38815   0.17724   0.64729  -0.03339
C          C       0.43590   0.19197   0.70998   0.26531
C          C       0.63516   0.18232   0.70288  -0.24059
C          C       0.74522   0.19355   0.73051  -0.06278
C          C       0.65899   0.21494   0.76513  -0.07647
C          C       0.45842   0.22467   0.77160  -0.07251
C          C       0.34742   0.21302   0.74447  -0.19734
C          C       0.77643   0.22634   0.79449   0.57650
C          C       0.11909   0.27340   0.63255  -0.03654
C          C       0.83393   0.35752   0.62147   0.26235
C          C       0.90196   0.41403   0.63652  -0.23229
C          C       0.78743   0.48233   0.63871  -0.05235
C          C       0.60387   0.49573   0.62674  -0.06760
C          C       0.53551   0.43817   0.61257  -0.07103
C          C       0.64864   0.36972   0.61015  -0.21606
C          C       0.49185   0.57088   0.62916   0.59817
O          O       0.00156   0.42810   0.12912  -0.20059
O          O       0.39933   0.73219   0.13459  -0.61922
O          O       0.21799   0.64979   0.14178  -0.50510
O          O       0.42098   0.28537   0.07642  -0.20858
O          O       0.96282   0.23089   0.92880  -0.53173
O          O       0.67680   0.25687   0.90709  -0.65537
O          O       0.24664   0.31768   0.18430  -0.20454
O          O       0.92471   0.27866   0.28927  -0.51802
O          O       0.67711   0.25718   0.32612  -0.64871
O          O       0.97762   0.21073   0.11643  -0.21402
O          O       0.94221   0.88212   0.14004  -0.57768
O          O       0.64363   0.91886   0.12176  -0.57371
O          O       0.55643   0.57296   0.87089  -0.20010
O          O       0.26605   0.26811   0.86540  -0.61612
O          O       0.00912   0.35018   0.85819  -0.50379
O          O       0.78248   0.71473   0.92357  -0.20857
O          O       0.12400   0.77158   0.07100  -0.53051
O          O       0.84132   0.74661   0.09292  -0.65724
O          O       0.74322   0.68226   0.81538  -0.20505
O          O       0.48722   0.72145   0.71058  -0.51671
O          O       0.25757   0.74274   0.67324  -0.65005
O          O       0.30195   0.78914   0.88192  -0.21263
O          O       0.96952   0.11810   0.86024  -0.57504
O          O       0.68657   0.08207   0.87794  -0.57434
O          O       0.87797   0.92811   0.37090  -0.20173
O          O       0.27940   0.23187   0.36524  -0.61643
O          O       0.10505   0.14954   0.35819  -0.50356
O          O       0.24833   0.78553   0.42342  -0.20828
O          O       0.64088   0.72919   0.57115  -0.52946
O          O       0.33338   0.75681   0.59292  -0.65557
O          O       0.17997   0.81770   0.31516  -0.20471
O          O       0.96403   0.77869   0.20981  -0.51747
O          O       0.75296   0.75704   0.17323  -0.64871
O          O       0.84329   0.71092   0.38350  -0.21323
O          O       0.83359   0.38210   0.35997  -0.57699
O          O       0.51610   0.41827   0.37823  -0.57439
O          O       0.18063   0.07167   0.62912  -0.19808
O          O       0.87662   0.76826   0.63460  -0.61616
O          O       0.61304   0.85067   0.64179  -0.50344
O          O       0.45926   0.21474   0.57651  -0.20818
O          O       0.94097   0.26993   0.42736  -0.53196
O          O       0.67777   0.24339   0.40708  -0.65438
O          O       0.31404   0.18229   0.68484  -0.20369
O          O       0.95378   0.22154   0.78951  -0.51683
O          O       0.68619   0.24297   0.82673  -0.64745
O          O       0.93957   0.28892   0.61648  -0.21454
O          O       0.58046   0.61834   0.63855  -0.57613
O          O       0.31507   0.58186   0.62171  -0.57565

