data_crystal

_audit_creation_method 'AiiDA-DDEC plugin'

_cell_length_a        12.15176
_cell_length_b        17.14338
_cell_length_c        31.63633

_cell_angle_alpha     89.99126
_cell_angle_beta     89.98344
_cell_angle_gamma     90.00045

_symmetry_space_group_name_Hall 'P 1'
_symmetry_space_group_name_H-M  'P 1'

loop_
_symmetry_equiv_pos_as_xyz
 'x,y,z'

loop_
_atom_site_label
_atom_site_type_symbol
_atom_site_fract_x
_atom_site_fract_y
_atom_site_fract_z
_atom_site_charge
Fe         Fe      0.25063  -0.00089   0.42378   0.83672
Fe         Fe      0.74953  -0.00073   0.07622   0.83667
Fe         Fe      0.74984   0.00091   0.57630   0.83642
Fe         Fe      0.25053   0.00101   0.92378   0.83645
Fe         Fe      0.74944   0.50020   0.42824   0.83919
Fe         Fe      0.25059   0.49992   0.07177   0.83936
Fe         Fe      0.25106   0.50044   0.57176   0.83954
Fe         Fe      0.74905   0.50047   0.92823   0.83956
Ag         Ag      0.48801   0.25642   0.43508   0.16109
Ag         Ag      0.91163   0.17433   0.45831   0.29718
Ag         Ag      0.56873   0.30837   0.53073   0.15652
Ag         Ag      0.01173   0.74334   0.43509   0.16094
Ag         Ag      0.58928   0.82521   0.45841   0.29752
Ag         Ag      0.93195   0.69148   0.53092   0.15600
Ag         Ag      0.51199   0.25643   0.06492   0.16090
Ag         Ag      0.08836   0.17420   0.04169   0.29740
Ag         Ag      0.43124   0.30829   0.96923   0.15625
Ag         Ag      0.98837   0.74330   0.06505   0.16054
Ag         Ag      0.41088   0.82534   0.04154   0.29761
Ag         Ag      0.06817   0.69147   0.96909   0.15618
Ag         Ag      0.51248   0.74346   0.56490   0.16115
Ag         Ag      0.08840   0.82576   0.54168   0.29723
Ag         Ag      0.43125   0.69170   0.46924   0.15603
Ag         Ag      0.98849   0.25716   0.56494   0.16016
Ag         Ag      0.41086   0.17475   0.54158   0.29780
Ag         Ag      0.06809   0.30863   0.46916   0.15586
Ag         Ag      0.48785   0.74394   0.93502   0.16099
Ag         Ag      0.91169   0.82575   0.95830   0.29729
Ag         Ag      0.56871   0.69169   0.03068   0.15625
Ag         Ag      0.01138   0.25683   0.93502   0.16087
Ag         Ag      0.58930   0.17486   0.95833   0.29731
Ag         Ag      0.93184   0.30853   0.03092   0.15603
H          H       0.41134   0.03865   0.35087   0.09299
H          H       0.41807   0.04083   0.27229   0.11371
H          H       0.41392   0.95224   0.21268   0.10612
H          H       0.41409   0.95219   0.13458   0.10888
H          H       0.42180   0.03392   0.07493   0.12382
H          H       0.41442   0.03248   0.99702   0.08534
H          H       0.58288   0.52381   0.35585   0.09271
H          H       0.57556   0.52455   0.27734   0.11320
H          H       0.59958   0.43362   0.21763   0.10851
H          H       0.60026   0.43247   0.13971   0.11039
H          H       0.57229   0.49024   0.07912   0.12066
H          H       0.58075   0.48861   0.00144   0.08500
H          H       0.08894   0.96107   0.35096   0.09323
H          H       0.08181   0.95925   0.27240   0.11379
H          H       0.08589   0.04782   0.21263   0.10663
H          H       0.08593   0.04774   0.13453   0.10855
H          H       0.07839   0.96611   0.07480   0.12435
H          H       0.08605   0.96838   0.99690   0.08567
H          H       0.91684   0.47633   0.35593   0.09309
H          H       0.92450   0.47551   0.27743   0.11330
H          H       0.90059   0.56629   0.21759   0.10844
H          H       0.89994   0.56746   0.13968   0.11062
H          H       0.92776   0.50976   0.07897   0.12033
H          H       0.91891   0.51152   0.00129   0.08470
H          H       0.58873   0.03871   0.14917   0.09309
H          H       0.58197   0.04090   0.22774   0.11363
H          H       0.58605   0.95223   0.28739   0.10628
H          H       0.58599   0.95219   0.36548   0.10901
H          H       0.57823   0.03376   0.42513   0.12385
H          H       0.58568   0.03224   0.50302   0.08512
H          H       0.41709   0.52379   0.14409   0.09301
H          H       0.42449   0.52456   0.22259   0.11304
H          H       0.40046   0.43366   0.28237   0.10852
H          H       0.39971   0.43247   0.36029   0.11048
H          H       0.42767   0.49020   0.42083   0.12013
H          H       0.41921   0.48856   0.49851   0.08495
H          H       0.91109   0.96106   0.14909   0.09294
H          H       0.91814   0.95922   0.22768   0.11354
H          H       0.91413   0.04773   0.28734   0.10659
H          H       0.91421   0.04771   0.36545   0.10868
H          H       0.92172   0.96622   0.42522   0.12439
H          H       0.91414   0.96852   0.50312   0.08570
H          H       0.08312   0.47625   0.14405   0.09325
H          H       0.07552   0.47549   0.22255   0.11345
H          H       0.09949   0.56637   0.28237   0.10874
H          H       0.10008   0.56747   0.36028   0.11068
H          H       0.07221   0.50982   0.42099   0.12065
H          H       0.08108   0.51166   0.49867   0.08462
H          H       0.58876   0.96136   0.64907   0.09321
H          H       0.58194   0.95910   0.72767   0.11388
H          H       0.58609   0.04766   0.78735   0.10611
H          H       0.58602   0.04776   0.86543   0.10875
H          H       0.57830   0.96623   0.92505   0.12397
H          H       0.58568   0.96782   0.00295   0.08561
H          H       0.41729   0.47630   0.64419   0.09292
H          H       0.42454   0.47540   0.72270   0.11353
H          H       0.40047   0.56632   0.78240   0.10858
H          H       0.39972   0.56751   0.86033   0.11042
H          H       0.42761   0.50965   0.92091   0.12043
H          H       0.41903   0.51141   0.99860   0.08510
H          H       0.91124   0.03893   0.64908   0.09300
H          H       0.91818   0.04067   0.72768   0.11386
H          H       0.91413   0.95217   0.78733   0.10694
H          H       0.91420   0.95228   0.86546   0.10900
H          H       0.92170   0.03392   0.92512   0.12437
H          H       0.91413   0.03178   0.00304   0.08563
H          H       0.08336   0.52393   0.64409   0.09269
H          H       0.07562   0.52457   0.72259   0.11324
H          H       0.09946   0.43367   0.78241   0.10843
H          H       0.10004   0.43253   0.86032   0.11062
H          H       0.07213   0.49011   0.92103   0.12035
H          H       0.08089   0.48841   0.99871   0.08432
H          H       0.41122   0.96145   0.85086   0.09320
H          H       0.41793   0.95910   0.77229   0.11380
H          H       0.41390   0.04776   0.71267   0.10633
H          H       0.41406   0.04780   0.63456   0.10898
H          H       0.42182   0.96611   0.57492   0.12391
H          H       0.41453   0.96773   0.49701   0.08528
H          H       0.58278   0.47633   0.85584   0.09292
H          H       0.57557   0.47543   0.77733   0.11304
H          H       0.59963   0.56632   0.71762   0.10839
H          H       0.60030   0.56743   0.63970   0.11003
H          H       0.57235   0.50974   0.57915   0.12017
H          H       0.58087   0.51155   0.50145   0.08462
H          H       0.08887   0.03911   0.85090   0.09280
H          H       0.08175   0.04079   0.77234   0.11371
H          H       0.08583   0.95220   0.71262   0.10632
H          H       0.08589   0.95227   0.63452   0.10874
H          H       0.07840   0.03384   0.57476   0.12408
H          H       0.08610   0.03168   0.49686   0.08573
H          H       0.91679   0.52381   0.85594   0.09336
H          H       0.92451   0.52452   0.77744   0.11338
H          H       0.90065   0.43367   0.71762   0.10922
H          H       0.89997   0.43248   0.63970   0.11077
H          H       0.92782   0.49028   0.57902   0.12071
H          H       0.91904   0.48856   0.50133   0.08509
C          C       0.41153   0.15045   0.43035   0.00380
C          C       0.56770   0.36122   0.43056   0.00224
C          C       0.04260   0.11836   0.43239  -0.03660
C          C       0.70028   0.25268   0.50348   0.01772
C          C       0.44293   0.37070   0.55777   0.00120
C          C       0.34042   0.02081   0.33223   0.09629
C          C       0.34367   0.02148   0.28832  -0.18980
C          C       0.34275   0.97457   0.19566  -0.12905
C          C       0.34290   0.97445   0.15167  -0.12417
C          C       0.34533   0.01817   0.05927  -0.18613
C          C       0.34187   0.01770   0.01541   0.09205
C          C       0.65647   0.51256   0.33721   0.09717
C          C       0.65307   0.51258   0.29330  -0.18887
C          C       0.66469   0.46386   0.20060  -0.13264
C          C       0.66506   0.46337   0.15660  -0.12038
C          C       0.65202   0.49384   0.06374  -0.18440
C          C       0.65563   0.49389   0.01990   0.08792
C          C       0.08882   0.84893   0.43034   0.00564
C          C       0.93170   0.63871   0.43055   0.00109
C          C       0.45860   0.88102   0.43233  -0.03561
C          C       0.80019   0.74691   0.50373   0.01760
C          C       0.05798   0.62939   0.55789   0.00123
C          C       0.15975   0.97893   0.33227   0.09601
C          C       0.15625   0.97853   0.28838  -0.19015
C          C       0.15711   0.02548   0.19564  -0.12928
C          C       0.15705   0.02547   0.15164  -0.12438
C          C       0.15497   0.98203   0.05921  -0.18653
C          C       0.15854   0.98303   0.01534   0.09124
C          C       0.84333   0.48756   0.33725   0.09678
C          C       0.84692   0.48749   0.29335  -0.18863
C          C       0.83550   0.53606   0.20058  -0.13240
C          C       0.83515   0.53657   0.15658  -0.12067
C          C       0.84797   0.50617   0.06365  -0.18447
C          C       0.84413   0.50624   0.01981   0.08984
C          C       0.58859   0.15052   0.06967   0.00436
C          C       0.43226   0.36118   0.06946   0.00233
C          C       0.95749   0.11826   0.06764  -0.03638
C          C       0.29957   0.25271   0.99653   0.01771
C          C       0.55705   0.37065   0.94214   0.00084
C          C       0.65959   0.02089   0.16781   0.09548
C          C       0.65630   0.02152   0.21171  -0.18917
C          C       0.65721   0.97451   0.30439  -0.12884
C          C       0.65712   0.97446   0.34838  -0.12445
C          C       0.65481   0.01811   0.44077  -0.18643
C          C       0.65827   0.01755   0.48464   0.09155
C          C       0.34353   0.51250   0.16275   0.09608
C          C       0.34697   0.51253   0.20665  -0.18811
C          C       0.33531   0.46390   0.29937  -0.13216
C          C       0.33493   0.46338   0.34338  -0.12071
C          C       0.34795   0.49384   0.43622  -0.18326
C          C       0.34433   0.49388   0.48006   0.08764
C          C       0.91128   0.84900   0.06973   0.00577
C          C       0.06843   0.63862   0.06953   0.00149
C          C       0.54158   0.88110   0.06762  -0.03583
C          C       0.19999   0.74689   0.99629   0.01723
C          C       0.94214   0.62935   0.94209   0.00145
C          C       0.84023   0.97896   0.16777   0.09621
C          C       0.84369   0.97851   0.21167  -0.18920
C          C       0.84290   0.02539   0.30435  -0.12871
C          C       0.84300   0.02546   0.34836  -0.12411
C          C       0.84517   0.98213   0.44082  -0.18671
C          C       0.84161   0.98306   0.48469   0.09131
C          C       0.15666   0.48747   0.16272   0.09624
C          C       0.15312   0.48743   0.20663  -0.18876
C          C       0.16454   0.53611   0.29937  -0.13285
C          C       0.16486   0.53660   0.34337  -0.12097
C          C       0.15198   0.50623   0.43632  -0.18492
C          C       0.15583   0.50632   0.48015   0.08926
C          C       0.58866   0.84958   0.56970   0.00459
C          C       0.43249   0.63883   0.56938   0.00239
C          C       0.95766   0.88184   0.56762  -0.03615
C          C       0.29955   0.74726   0.49651   0.01854
C          C       0.55715   0.62946   0.44214   0.00187
C          C       0.65962   0.97921   0.66775   0.09568
C          C       0.65637   0.97844   0.71166  -0.19024
C          C       0.65720   0.02539   0.80434  -0.12942
C          C       0.65709   0.02553   0.84831  -0.12421
C          C       0.65477   0.98195   0.94072  -0.18624
C          C       0.65821   0.98255   0.98457   0.09121
C          C       0.34366   0.48752   0.66282   0.09689
C          C       0.34705   0.48743   0.70673  -0.18851
C          C       0.33534   0.53606   0.79942  -0.13277
C          C       0.33492   0.53660   0.84344  -0.12069
C          C       0.34787   0.50613   0.93629  -0.18369
C          C       0.34420   0.50610   0.98013   0.08810
C          C       0.91159   0.15150   0.56970   0.00543
C          C       0.06873   0.36163   0.56949   0.00256
C          C       0.54155   0.11897   0.56770  -0.03777
C          C       0.19990   0.25308   0.49627   0.01709
C          C       0.94215   0.37074   0.44215   0.00131
C          C       0.84034   0.02107   0.66775   0.09669
C          C       0.84379   0.02139   0.71165  -0.19041
C          C       0.84285   0.97452   0.80432  -0.12953
C          C       0.84297   0.97455   0.84834  -0.12447
C          C       0.84516   0.01802   0.94076  -0.18665
C          C       0.84157   0.01715   0.98463   0.09219
C          C       0.15682   0.51260   0.66278   0.09728
C          C       0.15320   0.51259   0.70667  -0.18932
C          C       0.16452   0.46387   0.79943  -0.13260
C          C       0.16482   0.46340   0.84343  -0.12079
C          C       0.15192   0.49379   0.93635  -0.18489
C          C       0.15570   0.49371   0.98020   0.08929
C          C       0.41138   0.84995   0.93030   0.00587
C          C       0.56746   0.63902   0.93056   0.00193
C          C       0.04257   0.88183   0.93239  -0.03773
C          C       0.70040   0.74733   0.00348   0.01772
C          C       0.44290   0.62940   0.05777   0.00137
C          C       0.34031   0.97925   0.83221   0.09613
C          C       0.34358   0.97852   0.78832  -0.18997
C          C       0.34272   0.02544   0.69564  -0.12929
C          C       0.34286   0.02553   0.65164  -0.12403
C          C       0.34533   0.98188   0.55926  -0.18598
C          C       0.34193   0.98245   0.51539   0.09178
C          C       0.65639   0.48758   0.83720   0.09659
C          C       0.65305   0.48745   0.79330  -0.18844
C          C       0.66473   0.53609   0.70060  -0.13245
C          C       0.66508   0.53656   0.65661  -0.12017
C          C       0.65208   0.50619   0.56376  -0.18401
C          C       0.65574   0.50626   0.51991   0.08795
C          C       0.08856   0.15119   0.93028   0.00436
C          C       0.93124   0.36148   0.93053   0.00229
C          C       0.45847   0.11919   0.93229  -0.03542
C          C       0.80005   0.25306   0.00379   0.01708
C          C       0.05776   0.37070   0.05792   0.00102
C          C       0.15967   0.02117   0.83224   0.09640
C          C       0.15617   0.02153   0.78835  -0.19099
C          C       0.15704   0.97454   0.69562  -0.12890
C          C       0.15701   0.97452   0.65162  -0.12445
C          C       0.15500   0.01797   0.55918  -0.18687
C          C       0.15859   0.01704   0.51531   0.09108
C          C       0.84327   0.51258   0.83726   0.09708
C          C       0.84691   0.51255   0.79336  -0.18877
C          C       0.83554   0.46391   0.70061  -0.13301
C          C       0.83517   0.46337   0.65660  -0.12042
C          C       0.84806   0.49387   0.56368  -0.18494
C          C       0.84425   0.49388   0.51984   0.08898
C          C       0.24992   0.00000   0.26501   0.10476
C          C       0.24990   0.00002   0.21841   0.05179
C          C       0.25002  -0.00004   0.12898   0.06862
C          C       0.25011   0.00004   0.08243   0.09437
C          C       0.74999   0.00001   0.23503   0.10399
C          C       0.75000  -0.00000   0.28162   0.05078
C          C       0.75003  -0.00003   0.37105   0.06838
C          C       0.75001   0.00001   0.41759   0.09473
C          C       0.75003  -0.00004   0.73500   0.10494
C          C       0.74997  -0.00009   0.78158   0.05187
C          C       0.74994   0.00002   0.87100   0.06870
C          C       0.74996   0.00004   0.91755   0.09391
C          C       0.24984  -0.00002   0.76499   0.10541
C          C       0.24984  -0.00003   0.71839   0.05104
C          C       0.24998   0.00002   0.62896   0.06863
C          C       0.25009  -0.00004   0.58242   0.09495
C          C       0.75005   0.50002   0.27000   0.10365
C          C       0.75010   0.49997   0.22340   0.05405
C          C       0.75011   0.49998   0.13370   0.06404
C          C       0.75004   0.50001   0.08705   0.09728
C          C       0.25000   0.50000   0.22997   0.10344
C          C       0.24993   0.50000   0.27657   0.05420
C          C       0.24985   0.49999   0.36627   0.06389
C          C       0.24990   0.50003   0.41292   0.09716
C          C       0.25004   0.49998   0.73002   0.10372
C          C       0.24991   0.49999   0.77662   0.05425
C          C       0.24983   0.49999   0.86632   0.06449
C          C       0.24987   0.49993   0.91296   0.09710
C          C       0.75004   0.50001   0.77001   0.10361
C          C       0.75011   0.49999   0.72341   0.05383
C          C       0.75012   0.49996   0.63371   0.06353
C          C       0.75012   0.50003   0.58707   0.09725
N          N       0.36526   0.09092   0.42582  -0.35131
N          N       0.62138   0.41801   0.42828  -0.35286
N          N       0.11821   0.07977   0.42253  -0.33548
N          N       0.77296   0.22205   0.48574  -0.28900
N          N       0.37165   0.41112   0.56994  -0.34426
N          N       0.13567   0.90823   0.42582  -0.35252
N          N       0.87796   0.58198   0.42824  -0.35157
N          N       0.38277   0.91932   0.42243  -0.33511
N          N       0.72766   0.77762   0.48595  -0.28886
N          N       0.12938   0.58907   0.57006  -0.34405
N          N       0.63503   0.09105   0.07417  -0.35159
N          N       0.37850   0.41792   0.07175  -0.35286
N          N       0.88189   0.07965   0.07748  -0.33532
N          N       0.22687   0.22205   0.01424  -0.28913
N          N       0.62830   0.41117   0.93002  -0.34397
N          N       0.86421   0.90820   0.07423  -0.35250
N          N       0.12235   0.58195   0.07181  -0.35209
N          N       0.61729   0.91948   0.07757  -0.33513
N          N       0.27255   0.77760   0.01403  -0.28833
N          N       0.87070   0.58905   0.92996  -0.34456
N          N       0.63487   0.90916   0.57413  -0.35166
N          N       0.37854   0.58220   0.57175  -0.35214
N          N       0.88220   0.92058   0.57747  -0.33553
N          N       0.22698   0.77791   0.51430  -0.28990
N          N       0.62851   0.58909   0.42999  -0.34457
N          N       0.86468   0.09223   0.57422  -0.35168
N          N       0.12267   0.41828   0.57177  -0.35333
N          N       0.61736   0.08066   0.57763  -0.33405
N          N       0.27248   0.22234   0.51400  -0.28833
N          N       0.87088   0.41115   0.42996  -0.34465
N          N       0.36500   0.90945   0.92583  -0.35296
N          N       0.62112   0.58223   0.92826  -0.35175
N          N       0.11806   0.92058   0.92259  -0.33413
N          N       0.77304   0.77803   0.98576  -0.28923
N          N       0.37163   0.58898   0.06996  -0.34423
N          N       0.13561   0.09196   0.92579  -0.35130
N          N       0.87744   0.41819   0.92819  -0.35330
N          N       0.38264   0.08087   0.92240  -0.33545
N          N       0.72765   0.22239   0.98593  -0.28810
N          N       0.12901   0.41109   0.07013  -0.34401
N          N       0.25015  -0.00024   0.35438  -0.23170
N          N       0.25026   0.00050   0.99316  -0.23493
N          N       0.74983  -0.00017   0.14566  -0.23140
N          N       0.74996   0.00049   0.50689  -0.23422
N          N       0.74996   0.00022   0.64562  -0.23182
N          N       0.74984  -0.00028   0.00681  -0.23500
N          N       0.25006   0.00036   0.85434  -0.23096
N          N       0.25031  -0.00038   0.49313  -0.23461
N          N       0.74985   0.50006   0.35936  -0.23430
N          N       0.74982   0.50012   0.99757  -0.23508
N          N       0.25015   0.49995   0.14060  -0.23373
N          N       0.25014   0.50015   0.50238  -0.23441
N          N       0.25031   0.50012   0.64067  -0.23454
N          N       0.24997   0.49995   0.00244  -0.23452
N          N       0.74973   0.50017   0.85936  -0.23473
N          N       0.74996   0.50006   0.49760  -0.23410

