data_crystal

_audit_creation_method 'AiiDA-DDEC plugin'

_cell_length_a        10.45417
_cell_length_b        32.23773
_cell_length_c        32.28455

_cell_angle_alpha     90.00000
_cell_angle_beta     90.00000
_cell_angle_gamma     91.78619

_symmetry_space_group_name_Hall 'P 1'
_symmetry_space_group_name_H-M  'P 1'

loop_
_symmetry_equiv_pos_as_xyz
 'x,y,z'

loop_
_atom_site_label
_atom_site_type_symbol
_atom_site_fract_x
_atom_site_fract_y
_atom_site_fract_z
_atom_site_charge
Zn         Zn      0.47173   0.13236   0.79938   0.97450
Zn         Zn      0.66694   0.78435   0.21854   0.98957
Zn         Zn      0.37781   0.77601   0.21121   0.99319
Zn         Zn      0.02714   0.29677   0.37198   0.97687
Zn         Zn      0.97286   0.70323   0.62802   0.97686
Zn         Zn      0.52826   0.86764   0.20062   0.97452
Zn         Zn      0.87781   0.27601   0.28879   0.99323
Zn         Zn      0.52713   0.79677   0.12802   0.97685
Zn         Zn      0.83305   0.71565   0.71854   0.98962
Zn         Zn      0.47286   0.20323   0.87198   0.97692
Zn         Zn      0.33306   0.21565   0.78146   0.98959
Zn         Zn      0.16694   0.28435   0.28146   0.98959
Zn         Zn      0.02827   0.36764   0.29938   0.97448
Zn         Zn      0.12218   0.72399   0.71121   0.99325
Zn         Zn      0.62219   0.22399   0.78879   0.99325
Zn         Zn      0.97173   0.63236   0.70062   0.97442
H          H       0.92964   0.74683   0.98457   0.27657
H          H       0.97753   0.47401   0.56830   0.10951
H          H       0.30256   0.08697   0.24663   0.12063
H          H       0.42964   0.24683   0.51543   0.27650
H          H       0.51075   0.06843   0.02657   0.10977
H          H       0.53459   0.97130   0.12125   0.12631
H          H       0.38220   0.63982   0.20908   0.12860
H          H       0.01075   0.56843   0.47343   0.10974
H          H       0.05211   0.99016   0.74632   0.28404
H          H      -0.00275   0.62227   0.52719   0.12569
H          H       0.81531   0.75494   0.04478   0.13888
H          H       0.75384   0.04982   0.75579   0.15356
H          H       0.19744   0.41303   0.74663   0.12072
H          H       0.78157   0.24863   0.59008   0.12053
H          H       0.27023   0.74947   0.54654   0.15003
H          H       0.52913   0.33575   0.27218   0.14340
H          H       0.65156   0.78711   0.35447   0.12859
H          H       0.33087   0.44896   0.25390   0.13836
H          H       0.02913   0.83575   0.22782   0.14345
H          H       0.49725   0.12227   0.97281   0.12566
H          H       0.90828   0.06426   0.28169   0.10312
H          H       0.97086   0.16425   0.77218   0.14336
H          H       0.40828   0.56426   0.21831   0.10315
H          H       0.07035   0.25317   0.01543   0.27639
H          H       0.15157   0.28711   0.14553   0.12865
H          H       0.77305   0.66358   0.24440   0.12879
H          H       0.46540   0.02870   0.87875   0.12642
H          H       0.21843   0.75137   0.40992   0.12071
H          H       0.75407   0.25821   0.16694   0.12947
H          H       0.72694   0.83642   0.74440   0.12912
H          H       0.71843   0.25137   0.09008   0.12064
H          H       0.83086   0.94896   0.24610   0.13845
H          H       0.59171   0.43574   0.78169   0.10288
H          H       0.34843   0.21289   0.64553   0.12870
H          H       0.98064   0.23177   0.84037   0.13897
H          H       0.00275   0.37773   0.47281   0.12573
H          H       0.88220   0.13982   0.29092   0.12853
H          H       0.68468   0.74506   0.54478   0.13866
H          H       0.88036   0.72019   0.93025   0.10325
H          H       0.61963   0.77981   0.43025   0.10303
H          H       0.94788   0.00984   0.25367   0.28409
H          H       0.51935   0.26823   0.34037   0.13899
H          H       0.57035   0.75317   0.48457   0.27628
H          H       0.72976   0.25053   0.45346   0.14984
H          H       0.74592   0.24179   0.66694   0.12934
H          H       0.98924   0.43157   0.52657   0.10975
H          H       0.11963   0.27981   0.06975   0.10316
H          H       0.28156   0.74863   0.90992   0.12047
H          H       0.47753   0.97401   0.93170   0.10920
H          H       0.25407   0.75821   0.33306   0.12957
H          H       0.27306   0.16358   0.25560   0.12884
H          H       0.69743   0.91303   0.75337   0.12074
H          H       0.03460   0.47130   0.37875   0.12638
H          H       0.31531   0.25494   0.45522   0.13880
H          H       0.61779   0.36018   0.79092   0.12845
H          H       0.24592   0.74179   0.83306   0.12934
H          H       0.11779   0.86018   0.70908   0.12843
H          H       0.02246   0.52599   0.43170   0.10951
H          H       0.48924   0.93157   0.97343   0.10985
H          H       0.01935   0.76822   0.15963   0.13895
H          H       0.50274   0.87773   0.02719   0.12572
H          H       0.22976   0.75053   0.04654   0.14980
H          H       0.96539   0.52870   0.62124   0.12636
H          H       0.38036   0.22019   0.56975   0.10326
H          H       0.22694   0.33642   0.75560   0.12908
H          H       0.66913   0.55104   0.74610   0.13827
H          H       0.80256   0.58697   0.25337   0.12055
H          H       0.74616   0.45018   0.25579   0.15345
H          H       0.77024   0.24947   0.95346   0.14996
H          H       0.25383   0.54982   0.74421   0.15364
H          H       0.18468   0.24506   0.95522   0.13867
H          H       0.52246   0.02599   0.06830   0.10917
H          H       0.47086   0.66425   0.72782   0.14334
H          H       0.09171   0.93574   0.71831   0.10288
H          H       0.24615   0.95018   0.24421   0.15339
H          H       0.44788   0.50984   0.24633   0.28408
H          H       0.84842   0.71289   0.85447   0.12883
H          H       0.48064   0.73177   0.65963   0.13891
H          H       0.55211   0.49016   0.75367   0.28398
H          H       0.16913   0.05104   0.75390   0.13833
C          C       0.03175   0.86899   0.23339  -0.08675
C          C       0.03832   0.27432   0.09037  -0.12626
C          C       0.94235   0.72112   0.86707  -0.09036
C          C       0.19476   0.14127   0.26105  -0.08942
C          C       0.13944   0.75308   0.06264  -0.16951
C          C       0.99305   0.58961   0.53562  -0.08847
C          C       0.71091   0.59901   0.24406  -0.09492
C          C       0.08272   0.10978   0.76277  -0.02060
C          C       0.39142   0.42949   0.76302  -0.04441
C          C       0.77008   0.36763   0.27252   0.58403
C          C       0.68719   0.24127   0.60271  -0.09392
C          C       0.63944   0.25308   0.43736  -0.16959
C          C       0.53955   0.45486   0.25282   0.24796
C          C       0.50428   0.98372   0.01601   0.07498
C          C       0.97681   0.24917   0.95965   0.24941
C          C       0.86056   0.24692   0.93736  -0.16962
C          C       0.97416   0.61212   0.61018   0.58908
C          C       0.07626   0.15605   0.27395  -0.01097
C          C       0.40602   0.25565   0.43858  -0.18864
C          C       0.40481   0.26191   0.39585  -0.01925
C          C       0.45480   0.77314   0.33957  -0.01054
C          C       0.51954   0.92100   0.07765  -0.01949
C          C       0.33232   0.76276   0.35494  -0.08920
C          C       0.42082   0.43294   0.25611  -0.19238
C          C       0.80523   0.85873   0.73895  -0.08937
C          C       0.95480   0.27314   0.16043  -0.01057
C          C      -0.00062   0.44105   0.49443  -0.12985
C          C       0.93687   0.79808   0.71930   0.57701
C          C       0.75987   0.26357   0.37062   0.59362
C          C       0.78134   0.76896   0.12680   0.58497
C          C       0.48045   0.07900   0.92235  -0.01952
C          C       0.63691   0.25919   0.39461  -0.01764
C          C       0.00062   0.55895   0.50557  -0.12985
C          C       0.74012   0.23643   0.87062   0.59360
C          C       0.01954   0.42100   0.42235  -0.01948
C          C       0.22992   0.63237   0.72747   0.58404
C          C       0.56312   0.70192   0.21930   0.57707
C          C       0.15477   0.93347   0.24259  -0.16783
C          C       0.50062   0.05895   0.99443  -0.13001
C          C       0.91532   0.26444   0.07484  -0.04492
C          C       0.04519   0.72686   0.83957  -0.01062
C          C       0.53831   0.77432   0.40963  -0.12619
C          C       0.49571   0.01628   0.98398   0.07510
C          C       0.25987   0.76357   0.12938   0.59367
C          C       0.02583   0.38788   0.38982   0.58919
C          C       0.84522   0.06653   0.75741  -0.16776
C          C       0.96044   0.04514   0.75282   0.24795
C          C       0.07917   0.06706   0.75611  -0.19253
C          C       0.72992   0.13237   0.77252   0.58411
C          C       0.14955   0.89079   0.23537  -0.01604
C          C       0.57626   0.65605   0.22605  -0.01083
C          C       0.01081   0.91459   0.72478  -0.12778
C          C       0.47680   0.74917   0.54035   0.24944
C          C       0.05764   0.27888   0.13293  -0.09055
C          C       0.52664   0.37208   0.78084  -0.08847
C          C       0.92373   0.84395   0.72605  -0.01107
C          C       0.36055   0.74692   0.56264  -0.16955
C          C       0.70707   0.63366   0.73188   0.59483
C          C       0.86309   0.24081   0.89461  -0.01759
C          C       0.10857   0.07051   0.26302  -0.04433
C          C       0.00694   0.41039   0.46438  -0.08846
C          C       0.38055   0.76064   0.46993   0.46075
C          C       0.59398   0.74435   0.56142  -0.18860
C          C       0.64955   0.39079   0.26463  -0.01608
C          C       0.98918   0.08541   0.27522  -0.12787
C          C       0.27007   0.86763   0.22748   0.58398
C          C       0.24012   0.73643   0.62938   0.59359
C          C       0.35990   0.47417   0.75835   0.46107
C          C       0.55764   0.77888   0.36707  -0.09062
C          C       0.09398   0.24435   0.93858  -0.18860
C          C       0.02663   0.87208   0.71916  -0.08848
C          C       0.92082   0.93294   0.24389  -0.19248
C          C       0.85044   0.10921   0.76463  -0.01615
C          C       0.03955   0.95486   0.24718   0.24798
C          C       0.46168   0.22568   0.59037  -0.12613
C          C       0.41728   0.39022   0.26277  -0.02073
C          C       0.46044   0.54514   0.74718   0.24790
C          C       0.51780   0.99375   0.05853  -0.12848
C          C       0.42373   0.34395   0.77395  -0.01094
C          C       0.28908   0.40099   0.75594  -0.09486
C          C       0.44235   0.22112   0.63293  -0.09052
C          C       0.52583   0.88788   0.11018   0.58916
C          C       0.52036   0.26317   0.37366  -0.08027
C          C       0.43687   0.29808   0.78070   0.57700
C          C       0.97501   0.53684   0.58869  -0.09010
C          C       0.46824   0.63101   0.73339  -0.08660
C          C       0.01780   0.49375   0.44147  -0.12889
C          C       0.34522   0.56653   0.74259  -0.16772
C          C       0.69476   0.64127   0.23895  -0.08957
C          C       0.58467   0.23556   0.57484  -0.04497
C          C       0.35044   0.60921   0.73537  -0.01616
C          C       0.64009   0.52583   0.24165   0.46123
C          C       0.08467   0.73556   0.92516  -0.04488
C          C       0.52611   0.22169   0.70631   0.57706
C          C       0.59519   0.73809   0.60414  -0.01915
C          C       0.57917   0.56706   0.74389  -0.19246
C          C       0.21091   0.09901   0.25594  -0.09492
C          C       0.41532   0.76444   0.42516  -0.04488
C          C       0.18718   0.74127   0.89729  -0.09405
C          C       0.21866   0.23104   0.87320   0.58497
C          C       0.20707   0.13366   0.76812   0.59489
C          C       0.60857   0.57051   0.23698  -0.04435
C          C       0.47416   0.11212   0.88982   0.58922
C          C       0.51081   0.41459   0.77522  -0.12773
C          C       0.47501   0.03684   0.91131  -0.09006
C          C       0.02498   0.46316   0.41131  -0.09005
C          C       0.96168   0.72568   0.90963  -0.12625
C          C       0.02036   0.76317   0.12634  -0.08028
C          C       0.83232   0.26276   0.14506  -0.08921
C          C       0.97963   0.23683   0.87366  -0.08031
C          C       0.48220   0.00625   0.94147  -0.12845
C          C       0.49305   0.08961   0.96438  -0.08846
C          C       0.06313   0.20192   0.28070   0.57700
C          C       0.47389   0.77831   0.29369   0.57688
C          C       0.85990   0.97417   0.74164   0.46093
C          C       0.91727   0.89022   0.23723  -0.02059
C          C       0.47336   0.62792   0.21916  -0.08844
C          C       0.98219   0.50625   0.55853  -0.12888
C          C       0.47963   0.73683   0.62634  -0.08038
C          C       0.30523   0.35873   0.76105  -0.08952
C          C       0.97389   0.27831   0.20631   0.57695
C          C       0.00428   0.48372   0.48398   0.07505
C          C       0.54519   0.22686   0.66043  -0.01059
C          C       0.52319   0.25083   0.45965   0.24956
C          C       0.97336   0.12792   0.28084  -0.08841
C          C       0.52498   0.96316   0.08869  -0.09007
C          C       0.16767   0.73724   0.85494  -0.08918
C          C       0.02318   0.75083   0.04035   0.24927
C          C       0.14009   0.02583   0.25835   0.46095
C          C       0.79292   0.86634   0.23188   0.59477
C          C       0.96824   0.13101   0.76661  -0.08667
C          C       0.89142   0.92949   0.73698  -0.04445
C          C       0.99571   0.51628   0.51601   0.07507
C          C       0.66767   0.23724   0.64506  -0.08920
C          C       0.78908   0.90099   0.74406  -0.09481
C          C       0.09519   0.23809   0.89585  -0.01919
C          C       0.28134   0.26896   0.37320   0.58501
C          C       0.81281   0.25873   0.10271  -0.09387
C          C       0.49937   0.94105   0.00557  -0.12993
C          C       0.13691   0.75919   0.10539  -0.01758
C          C       0.31281   0.75873   0.39729  -0.09391
C          C       0.48918   0.58541   0.22478  -0.12776
C          C       0.88055   0.26064   0.03007   0.46086
C          C       0.65477   0.43347   0.25741  -0.16778
C          C       0.90601   0.75565   0.06142  -0.18856
C          C       0.98045   0.57900   0.57765  -0.01933
C          C       0.58271   0.60978   0.73723  -0.02072
C          C       0.11944   0.73936   0.96993   0.46111
C          C       0.36308   0.74081   0.60539  -0.01763
C          C       0.71865   0.73104   0.62680   0.58488
C          C       0.29292   0.36634   0.26812   0.59488
C          C       0.90480   0.76191   0.10415  -0.01929
C          C       0.02610   0.72169   0.79368   0.57699
C          C       0.50694   0.91039   0.03562  -0.08838
C          C       0.53176   0.36899   0.26661  -0.08662
C          C       0.61945   0.23936   0.53007   0.46097
N          N       0.53652   0.49772   0.24622  -0.34545
N          N       0.98190   0.25492   0.00257  -0.33924
N          N       0.03652   0.99772   0.25378  -0.34543
N          N       0.48190   0.75492   0.49743  -0.33903
N          N       0.01809   0.74508   0.99742  -0.33920
N          N       0.96348   0.00228   0.74622  -0.34561
N          N       0.46347   0.50228   0.75378  -0.34550
N          N       0.51809   0.24508   0.50257  -0.33930
O          O       0.75165   0.51464   0.24186  -0.42976
O          O       0.78810   0.77305   0.16558  -0.52780
O          O       0.82013   0.72906   0.60435  -0.54959
O          O       0.58120   0.79224   0.28085  -0.54149
O          O       0.69342   0.88743   0.22511  -0.54586
O          O       0.62461   0.11063   0.77271  -0.53971
O          O       0.25074   0.73974   0.66849  -0.51503
O          O       0.52488   0.85044   0.09731  -0.54987
O          O       0.32013   0.22906   0.89565  -0.54968
O          O       0.04048   0.78540   0.70422  -0.54125
O          O       0.47511   0.14956   0.90269  -0.54993
O          O       0.63777   0.22917   0.89140  -0.53839
O          O       0.29981   0.32711   0.26633  -0.51544
O          O       0.45951   0.71460   0.20422  -0.54094
O          O       0.67986   0.77094   0.10435  -0.54939
O          O       0.23147   0.73798   0.98153  -0.42939
O          O       0.16189   0.22438   0.27063  -0.53539
O          O       0.91878   0.70776   0.78085  -0.54107
O          O       0.74925   0.26026   0.33151  -0.51485
O          O       0.62409   0.23190   0.72853  -0.53838
O          O       0.08121   0.29224   0.21915  -0.54138
O          O       0.71189   0.72695   0.66558  -0.52770
O          O       0.02488   0.35044   0.40269  -0.54990
O          O       0.19342   0.38743   0.27489  -0.54591
O          O       0.13777   0.72917   0.60860  -0.53821
O          O       0.24925   0.76026   0.16849  -0.51488
O          O       0.74323   0.17084   0.77928  -0.52356
O          O       0.17986   0.27094   0.39565  -0.54954
O          O       0.24322   0.67084   0.72072  -0.52362
O          O       0.70018   0.67289   0.73366  -0.51540
O          O       0.75074   0.23974   0.83151  -0.51488
O          O       0.37590   0.76809   0.27147  -0.53789
O          O       0.41879   0.20776   0.71915  -0.54119
O          O       0.03139   0.40014   0.35228  -0.54824
O          O       0.96860   0.59986   0.64772  -0.54829
O          O       0.87539   0.38937   0.27271  -0.53989
O          O       0.53139   0.90014   0.14772  -0.54830
O          O       0.21189   0.22695   0.83442  -0.52763
O          O       0.86223   0.27083   0.39140  -0.53851
O          O       0.25165   0.01464   0.25814  -0.42957
O          O       0.28811   0.27305   0.33442  -0.52772
O          O       0.97527   0.69160   0.68740  -1.00741
O          O       0.79980   0.82711   0.23367  -0.51542
O          O       0.75677   0.32916   0.27928  -0.52343
O          O       0.66189   0.72437   0.22937  -0.53558
O          O       0.97511   0.64956   0.59731  -0.54980
O          O       0.25677   0.82916   0.22072  -0.52335
O          O       0.87590   0.26810   0.22853  -0.53810
O          O       0.46860   0.09986   0.85228  -0.54825
O          O       0.02472   0.30840   0.31260  -1.00736
O          O       0.30657   0.11257   0.77489  -0.54592
O          O       0.20019   0.17289   0.76633  -0.51547
O          O       0.52472   0.80840   0.18740  -1.00735
O          O       0.76853   0.26202   0.01847  -0.42891
O          O       0.37539   0.88937   0.22729  -0.53995
O          O       0.36222   0.77083   0.10860  -0.53854
O          O       0.12460   0.61063   0.72729  -0.53958
O          O       0.73147   0.23798   0.51847  -0.42909
O          O       0.12409   0.73190   0.77147  -0.53842
O          O       0.83810   0.77562   0.72937  -0.53518
O          O       0.24835   0.48536   0.75814  -0.42942
O          O       0.33811   0.27562   0.77063  -0.53524
O          O       0.74834   0.98536   0.74186  -0.42929
O          O       0.95951   0.21460   0.29577  -0.54104
O          O       0.54049   0.28540   0.79577  -0.54122
O          O       0.47527   0.19160   0.81260  -1.00744
O          O       0.80657   0.61257   0.72510  -0.54595
O          O       0.26852   0.76202   0.48153  -0.42883

