data_crystal

_audit_creation_method 'AiiDA-DDEC plugin'

_cell_length_a        11.26633
_cell_length_b        16.59049
_cell_length_c        20.20176

_cell_angle_alpha     65.50617
_cell_angle_beta     87.46107
_cell_angle_gamma     83.54945

_symmetry_space_group_name_Hall 'P 1'
_symmetry_space_group_name_H-M  'P 1'

loop_
_symmetry_equiv_pos_as_xyz
 'x,y,z'

loop_
_atom_site_label
_atom_site_type_symbol
_atom_site_fract_x
_atom_site_fract_y
_atom_site_fract_z
_atom_site_charge
Ni         Ni      0.91514   0.83101   0.94482   0.74105
Ni         Ni      0.58602   0.22411   0.94462   0.74506
Ni         Ni      0.08487   0.16900   0.05518   0.74098
Ni         Ni      0.41398   0.77590   0.05538   0.74519
Ni         Ni      0.75066   0.75991   0.47779   0.72986
Ni         Ni      0.24935   0.24010   0.52221   0.72990
H          H       0.52749   0.84249   0.81925   0.11386
H          H       0.48874   0.88343   0.68742   0.11397
H          H       0.27936   0.93463   0.63914   0.13748
H          H       0.97213   0.04920   0.59971   0.13256
H          H       0.85913   0.99068   0.52615   0.11772
H          H       0.99363   0.72377   0.66509   0.12296
H          H       0.10250   0.78131   0.74096   0.12984
H          H       0.80846   0.90173   0.33536   0.08868
H          H       0.95248   0.91953   0.23495   0.13421
H          H       0.12541   0.65934   0.37278   0.12376
H          H       0.96895   0.65206   0.46607   0.11054
H          H       0.17995   0.88260   0.05359   0.12310
H          H       0.03020   0.88945   0.14628   0.15033
H          H       0.28172   0.70779   0.31175   0.11453
H          H       0.42003   0.71102   0.21217   0.08804
H          H       0.68214   0.75753   0.96254   0.12061
H          H       0.60118   0.63055   0.95382   0.12318
H          H       0.95421   0.55483   0.89071   0.13084
H          H       0.02051   0.68885   0.90053   0.11306
H          H       0.97112   0.34023   0.81641   0.11329
H          H       0.01196   0.43068   0.68461   0.11487
H          H       0.22215   0.42586   0.63836   0.13733
H          H       0.52674   0.34808   0.60073   0.13201
H          H       0.63903   0.48019   0.52567   0.11815
H          H       0.50907   0.60916   0.66372   0.12331
H          H       0.40062   0.47555   0.74077   0.12940
H          H       0.69283   0.76267   0.33469   0.08923
H          H       0.54757   0.84601   0.23454   0.13461
H          H       0.37594   0.96654   0.37264   0.12342
H          H       0.53298   0.87917   0.46597   0.11064
H          H       0.31708   0.06467   0.05357   0.12297
H          H       0.46813   0.96471   0.14606   0.15002
H          H       0.21954   0.98076   0.31165   0.11506
H          H       0.08021   0.07824   0.21229   0.08862
H          H       0.81957   0.28037   0.96139   0.12059
H          H       0.89950   0.41583   0.95401   0.12315
H          H       0.54587   0.55511   0.89035   0.13088
H          H       0.48049   0.41122   0.89926   0.11269
H          H       0.47251   0.15752   0.18075   0.11379
H          H       0.51127   0.11657   0.31257   0.11394
H          H       0.72065   0.06537   0.36086   0.13747
H          H       0.02788   0.95080   0.40029   0.13233
H          H       0.14088   0.00932   0.47385   0.11775
H          H       0.00637   0.27623   0.33491   0.12315
H          H       0.89750   0.21869   0.25904   0.12989
H          H       0.19154   0.09828   0.66464   0.08864
H          H       0.04753   0.08047   0.76505   0.13412
H          H       0.87460   0.34066   0.62722   0.12383
H          H       0.03106   0.34794   0.53393   0.11075
H          H       0.82006   0.11740   0.94641   0.12308
H          H       0.96981   0.11055   0.85372   0.15042
H          H       0.71828   0.29221   0.68825   0.11458
H          H       0.57997   0.28898   0.78783   0.08797
H          H       0.31786   0.24247   0.03746   0.12050
H          H       0.39883   0.36945   0.04618   0.12329
H          H       0.04579   0.44517   0.10929   0.13085
H          H       0.97950   0.31115   0.09947   0.11292
H          H       0.02888   0.65978   0.18359   0.11331
H          H       0.98805   0.56932   0.31539   0.11485
H          H       0.77785   0.57415   0.36164   0.13733
H          H       0.47327   0.65193   0.39927   0.13220
H          H       0.36098   0.51981   0.47433   0.11806
H          H       0.49093   0.39084   0.33628   0.12311
H          H       0.59938   0.52445   0.25923   0.12942
H          H       0.30717   0.23734   0.66531   0.08926
H          H       0.45243   0.15400   0.76546   0.13463
H          H       0.62407   0.03347   0.62736   0.12333
H          H       0.46703   0.12084   0.53403   0.11056
H          H       0.68293   0.93533   0.94643   0.12297
H          H       0.53188   0.03529   0.85394   0.14999
H          H       0.78047   0.01925   0.68835   0.11509
H          H       0.91979   0.92177   0.78770   0.08862
H          H       0.18044   0.71964   0.03861   0.12069
H          H       0.10051   0.58418   0.04598   0.12302
H          H       0.45414   0.44489   0.10965   0.13078
H          H       0.51951   0.58879   0.10073   0.11285
C          C       0.37327   0.83887   0.92216   0.54593
C          C       0.11673   0.89692   0.86469   0.59254
C          C       0.34427   0.86733   0.84413  -0.04193
C          C       0.43772   0.86365   0.79677  -0.11847
C          C       0.41562   0.88660   0.72353  -0.07743
C          C       0.29928   0.91475   0.69640  -0.18977
C          C       0.20697   0.91831   0.74393   0.20816
C          C       0.22583   0.89496   0.81808  -0.11704
C          C       0.04138   0.91796   0.67398   0.25018
C          C       0.97382   0.97830   0.61394  -0.20772
C          C       0.91212   0.94571   0.57342  -0.08260
C          C       0.92018   0.85397   0.59184  -0.05199
C          C       0.98967   0.79461   0.65186  -0.07495
C          C       0.05017   0.82618   0.69342  -0.21672
C          C       0.85708   0.81858   0.54810   0.54398
C          C       0.87965   0.84954   0.34081   0.08775
C          C       0.96122   0.85906   0.28517  -0.16116
C          C       0.05311   0.79062   0.29538   0.09326
C          C       0.05725   0.71517   0.36218  -0.17970
C          C       0.97066   0.71000   0.41441   0.08923
C          C       0.19827   0.84586   0.11157   0.09528
C          C       0.11507   0.84835   0.16389  -0.15530
C          C       0.14123   0.79642   0.23788   0.09924
C          C       0.25402   0.74727   0.25558  -0.17474
C          C       0.33256   0.74862   0.20055   0.08854
C          C       0.73955   0.71163   0.94642   0.09818
C          C       0.69498   0.63956   0.94137  -0.16422
C          C       0.77150   0.57924   0.92295   0.09361
C          C       0.89118   0.59737   0.90756  -0.18201
C          C       0.92931   0.67134   0.91272   0.08578
C          C       0.12434   0.23962   0.92150   0.54539
C          C       0.38163   0.23650   0.86521   0.59142
C          C       0.15403   0.28880   0.84323  -0.04028
C          C       0.06134   0.34074   0.79489  -0.11865
C          C       0.08431   0.39075   0.72160  -0.07916
C          C       0.20089   0.38861   0.69544  -0.18936
C          C       0.29239   0.33674   0.74381   0.20751
C          C       0.27286   0.28646   0.81807  -0.11539
C          C       0.45909   0.40560   0.67425   0.25384
C          C       0.52563   0.40511   0.61426  -0.20793
C          C       0.58700   0.47839   0.57293  -0.08199
C          C       0.58006   0.55191   0.59092  -0.05109
C          C       0.51178   0.55137   0.65095  -0.07510
C          C       0.45165   0.47812   0.69313  -0.21732
C          C       0.64312   0.63123   0.54711   0.54058
C          C       0.62146   0.80906   0.34032   0.08796
C          C       0.53913   0.85559   0.28481  -0.16283
C          C       0.44732   0.91360   0.29512   0.09461
C          C       0.44376   0.92135   0.36200  -0.18021
C          C       0.53080   0.87375   0.41418   0.08828
C          C       0.29983   0.04328   0.11156   0.09418
C          C       0.38369   0.98824   0.16376  -0.15553
C          C       0.35868   0.96597   0.23771   0.09900
C          C       0.24640   0.99768   0.25549  -0.17571
C          C       0.16718   0.05180   0.20061   0.08827
C          C       0.76175   0.34241   0.94544   0.09979
C          C       0.80576   0.41946   0.94112  -0.16387
C          C       0.72887   0.49827   0.92281   0.09398
C          C       0.60925   0.49568   0.90702  -0.18179
C          C       0.57166   0.41659   0.91156   0.08365
C          C       0.62673   0.16113   0.07784   0.54594
C          C       0.88328   0.10308   0.13531   0.59233
C          C       0.65573   0.13268   0.15587  -0.04192
C          C       0.56229   0.13635   0.20323  -0.11852
C          C       0.58439   0.11341   0.27647  -0.07744
C          C       0.70072   0.08526   0.30360  -0.18978
C          C       0.79304   0.08169   0.25607   0.20843
C          C       0.77418   0.10505   0.18192  -0.11714
C          C       0.95863   0.08204   0.32602   0.25031
C          C       0.02618   0.02171   0.38606  -0.20767
C          C       0.08788   0.05430   0.42658  -0.08267
C          C       0.07983   0.14604   0.40816  -0.05191
C          C       0.01033   0.20539   0.34814  -0.07492
C          C       0.94983   0.17383   0.30658  -0.21692
C          C       0.14293   0.18142   0.45190   0.54370
C          C       0.12036   0.15046   0.65919   0.08765
C          C       0.03878   0.14095   0.71483  -0.16115
C          C       0.94689   0.20939   0.70462   0.09316
C          C       0.94276   0.28483   0.63782  -0.17965
C          C       0.02934   0.29000   0.58559   0.08918
C          C       0.80174   0.15415   0.88843   0.09534
C          C       0.88493   0.15165   0.83611  -0.15547
C          C       0.85877   0.20358   0.76212   0.09936
C          C       0.74599   0.25274   0.74442  -0.17488
C          C       0.66745   0.25139   0.79945   0.08869
C          C       0.26045   0.28838   0.05358   0.09830
C          C       0.30502   0.36044   0.05863  -0.16408
C          C       0.22851   0.42076   0.07705   0.09369
C          C       0.10883   0.40263   0.09244  -0.18203
C          C       0.07070   0.32867   0.08728   0.08580
C          C       0.87566   0.76038   0.07850   0.54538
C          C       0.61837   0.76350   0.13479   0.59161
C          C       0.84597   0.71121   0.15677  -0.04032
C          C       0.93866   0.65927   0.20511  -0.11843
C          C       0.91569   0.60925   0.27840  -0.07911
C          C       0.79911   0.61140   0.30456  -0.18963
C          C       0.70762   0.66326   0.25618   0.20760
C          C       0.72714   0.71354   0.18193  -0.11548
C          C       0.54092   0.59441   0.32575   0.25396
C          C       0.47437   0.59489   0.38574  -0.20794
C          C       0.41300   0.52161   0.42707  -0.08192
C          C       0.41995   0.44809   0.40908  -0.05118
C          C       0.48822   0.44863   0.34905  -0.07505
C          C       0.54835   0.52189   0.30687  -0.21740
C          C       0.35688   0.36878   0.45289   0.54060
C          C       0.37854   0.19094   0.65968   0.08794
C          C       0.46088   0.14441   0.71518  -0.16279
C          C       0.55269   0.08640   0.70488   0.09469
C          C       0.55625   0.07866   0.63800  -0.18021
C          C       0.46920   0.12625   0.58582   0.08839
C          C       0.70018   0.95673   0.88844   0.09411
C          C       0.61631   0.01176   0.83624  -0.15559
C          C       0.64132   0.03404   0.76229   0.09900
C          C       0.75360   0.00232   0.74451  -0.17568
C          C       0.83282   0.94820   0.79939   0.08821
C          C       0.23825   0.65759   0.05456   0.09976
C          C       0.19424   0.58055   0.05888  -0.16392
C          C       0.27114   0.50173   0.07719   0.09376
C          C       0.39075   0.50433   0.09298  -0.18163
C          C       0.42834   0.58342   0.08844   0.08363
N          N       0.88215   0.77617   0.40393  -0.23066
N          N       0.30506   0.79582   0.12953  -0.24510
N          N       0.85514   0.72704   0.93287  -0.20886
N          N       0.61941   0.81849   0.40350  -0.22970
N          N       0.19362   0.07555   0.12963  -0.24128
N          N       0.64624   0.34068   0.93145  -0.21060
N          N       0.11786   0.22384   0.59607  -0.23061
N          N       0.69494   0.20419   0.87047  -0.24521
N          N       0.14487   0.27296   0.06713  -0.20907
N          N       0.38059   0.18151   0.59650  -0.22977
N          N       0.80639   0.92445   0.87037  -0.24113
N          N       0.35376   0.65932   0.06854  -0.21052
O          O       0.29236   0.84700   0.96616  -0.51487
O          O       0.47888   0.80342   0.94574  -0.54967
O          O       0.07941   0.96450   0.87482  -0.53864
O          O       0.06329   0.82490   0.88661  -0.57323
O          O       0.09154   0.95240   0.71703  -0.21953
O          O       0.87890   0.73656   0.55970  -0.53559
O          O       0.78180   0.87047   0.49872  -0.55580
O          O       0.20444   0.18599   0.96591  -0.51539
O          O       0.01936   0.25292   0.94494  -0.55140
O          O       0.41823   0.15913   0.87369  -0.53771
O          O       0.43494   0.28508   0.88878  -0.57493
O          O       0.40770   0.32856   0.71758  -0.22255
O          O       0.62405   0.70116   0.55953  -0.53317
O          O       0.71616   0.62938   0.49694  -0.55496
O          O       0.70765   0.15301   0.03384  -0.51484
O          O       0.52113   0.19658   0.05426  -0.54975
O          O       0.92059   0.03551   0.12518  -0.53871
O          O       0.93671   0.17511   0.11339  -0.57291
O          O       0.90846   0.04761   0.28296  -0.21979
O          O       0.12110   0.26345   0.44029  -0.53537
O          O       0.21820   0.12953   0.50128  -0.55572
O          O       0.79556   0.81401   0.03409  -0.51538
O          O       0.98065   0.74708   0.05506  -0.55132
O          O       0.58177   0.84087   0.12631  -0.53759
O          O       0.56506   0.71493   0.11122  -0.57520
O          O       0.59231   0.67145   0.28242  -0.22238
O          O       0.37595   0.29884   0.44047  -0.53333
O          O       0.28385   0.37062   0.50306  -0.55490

