data_crystal

_audit_creation_method 'AiiDA-DDEC plugin'

_cell_length_a        14.47330
_cell_length_b        20.37919
_cell_length_c        21.30746

_cell_angle_alpha     90.11206
_cell_angle_beta     90.00000
_cell_angle_gamma     90.00000

_symmetry_space_group_name_Hall 'P 1'
_symmetry_space_group_name_H-M  'P 1'

loop_
_symmetry_equiv_pos_as_xyz
 'x,y,z'

loop_
_atom_site_label
_atom_site_type_symbol
_atom_site_fract_x
_atom_site_fract_y
_atom_site_fract_z
_atom_site_charge
Y          Y       0.05517   0.17422   0.90961   1.87657
Y          Y       0.80513   0.34283   0.92782   1.87734
Y          Y       0.44439   0.82558   0.40850   1.87704
Y          Y       0.69405   0.65674   0.42747   1.87826
Y          Y       0.94439   0.67443   0.59150   1.87722
Y          Y       0.19405   0.84326   0.57253   1.87823
Y          Y       0.55517   0.32578   0.09038   1.87639
Y          Y       0.30513   0.15717   0.07218   1.87743
H          H       0.71306   0.94436   0.92317   0.29269
H          H       0.53995   0.83563   0.79092   0.29022
H          H       0.65647   0.71804   0.10514   0.28871
H          H       0.68124   0.21858   0.99619   0.10840
H          H       0.54442   0.03295   0.01962   0.14750
H          H       0.80690   0.04306   0.92310   0.14215
H          H       0.61115   0.80900   0.06322   0.12112
H          H       0.58337   0.66895   0.91159   0.13653
H          H       0.62900   0.87345   0.87217   0.10484
H          H       0.44489   0.83705   0.69482   0.13841
H          H       0.56788   0.75550   0.52825   0.10782
H          H       0.70560   0.73417   0.70580   0.14673
H          H       0.64589   0.69072   0.21687   0.13530
H          H       0.62581   0.48599   0.26446   0.14103
H          H       0.59969   0.54628   0.07161   0.15302
H          H       0.78703   0.05487   0.42262   0.29232
H          H       0.95954   0.16592   0.29125   0.29019
H          H       0.84155   0.28258   0.60534   0.28780
H          H       0.81732   0.78118   0.49636   0.10835
H          H       0.95554   0.96644   0.51943   0.14688
H          H       0.69364   0.95655   0.42205   0.13834
H          H       0.88928   0.19084   0.56356   0.12146
H          H       0.91481   0.33123   0.41255   0.13717
H          H       0.87029   0.12661   0.37226   0.10273
H          H       0.05384   0.16406   0.19590   0.13809
H          H       0.93204   0.24505   0.02892   0.10841
H          H       0.79272   0.26650   0.20600   0.15242
H          H       0.85221   0.30956   0.71672   0.13564
H          H       0.87435   0.51399   0.76601   0.14101
H          H       0.89934   0.45441   0.57261   0.14857
H          H       0.28703   0.44513   0.57738   0.29224
H          H       0.45954   0.33408   0.70875   0.29022
H          H       0.34155   0.21742   0.39466   0.28794
H          H       0.31732   0.71883   0.50364   0.10846
H          H       0.45554   0.53356   0.48057   0.14677
H          H       0.19364   0.54345   0.57795   0.13824
H          H       0.38928   0.30916   0.43644   0.12167
H          H       0.41480   0.16878   0.58745   0.13696
H          H       0.37029   0.37340   0.62774   0.10267
H          H       0.55384   0.33594   0.80410   0.13823
H          H       0.43204   0.25495   0.97108   0.10812
H          H       0.29271   0.23350   0.79400   0.15258
H          H       0.35221   0.19044   0.28328   0.13575
H          H       0.37435   0.98601   0.23399   0.14111
H          H       0.39933   0.04559   0.42739   0.14770
H          H       0.21306   0.55564   0.07682   0.29248
H          H       0.03994   0.66438   0.20907   0.29024
H          H       0.15646   0.78196   0.89486   0.28865
H          H       0.18124   0.28142   0.00380   0.10833
H          H       0.04442   0.46705   0.98038   0.14769
H          H       0.30690   0.45694   0.07690   0.14209
H          H       0.11115   0.69100   0.93678   0.12122
H          H       0.08336   0.83105   0.08841   0.13662
H          H       0.12900   0.62656   0.12783   0.10453
H          H       0.94490   0.66295   0.30517   0.13846
H          H       0.06788   0.74450   0.47175   0.10762
H          H       0.20560   0.76583   0.29420   0.14680
H          H       0.14588   0.80928   0.78313   0.13516
H          H       0.12581   0.01401   0.73553   0.14122
H          H       0.09969   0.95372   0.92839   0.15284
C          C       0.82921   0.17447   0.93141   0.65466
C          C       0.75079   0.13470   0.95596  -0.03991
C          C       0.67958   0.16585   0.98910  -0.11579
C          C       0.60600   0.12877   0.01242  -0.03309
C          C       0.60291   0.06086   0.00232  -0.15315
C          C       0.67530   0.02954   0.97037   0.23417
C          C       0.74964   0.06646   0.94759  -0.18246
C          C       0.52715   0.16098   0.04581   0.65478
C          C       0.63126   0.91515   0.99725   0.46612
C          C       0.62356   0.84723   0.97051  -0.02898
C          C       0.61198   0.79586   0.01362  -0.12123
C          C       0.59795   0.73161   0.99260  -0.02682
C          C       0.59484   0.71886   0.92801  -0.08515
C          C       0.60625   0.76948   0.88450  -0.03299
C          C       0.62067   0.83384   0.90592  -0.15047
C          C       0.60633   0.74990   0.81662   0.46588
C          C       0.57552   0.78666   0.70847   0.22985
C          C       0.50172   0.81057   0.67286  -0.18230
C          C       0.50013   0.80038   0.60774  -0.04044
C          C       0.42115   0.82529   0.56978   0.65893
C          C       0.57042   0.76424   0.57849  -0.11266
C          C       0.64381   0.73994   0.61426  -0.03579
C          C       0.72214   0.70303   0.58469   0.65673
C          C       0.64729   0.75221   0.67895  -0.14693
C          C       0.58196   0.67349   0.03449   0.46567
C          C       0.62242   0.62511   0.13800   0.22820
C          C       0.63682   0.64025   0.20125  -0.19459
C          C       0.63960   0.59024   0.24647  -0.01938
C          C       0.62520   0.52455   0.22923  -0.10961
C          C       0.61017   0.50990   0.16571  -0.01919
C          C       0.61027   0.55951   0.12031  -0.17413
C          C       0.65680   0.61064   0.31272   0.56518
C          C       0.59335   0.44202   0.14180   0.57185
C          C       0.67066   0.82533   0.43034   0.65307
C          C       0.74885   0.86504   0.45558  -0.03746
C          C       0.81959   0.83385   0.48910  -0.11563
C          C       0.89330   0.87083   0.51248  -0.03558
C          C       0.89691   0.93868   0.50206  -0.15158
C          C       0.82492   0.97008   0.46988   0.23316
C          C       0.75049   0.93320   0.44696  -0.18053
C          C       0.97216   0.83889   0.54609   0.65496
C          C       0.86869   0.08466   0.49683   0.46532
C          C       0.87621   0.15267   0.47060  -0.02740
C          C       0.88809   0.20395   0.51401  -0.12156
C          C       0.90172   0.26828   0.49328  -0.02636
C          C       0.90404   0.28123   0.42878  -0.08859
C          C       0.89239   0.23071   0.38504  -0.02889
C          C       0.87854   0.16626   0.40612  -0.15036
C          C       0.89080   0.25056   0.31738   0.46731
C          C       0.92298   0.21426   0.20902   0.22953
C          C       0.99713   0.19033   0.17366  -0.18155
C          C      -0.00069   0.20041   0.10858  -0.03886
C          C       0.07854   0.17531   0.07083   0.65622
C          C       0.92916   0.23638   0.07913  -0.11354
C          C       0.85540   0.26059   0.11470  -0.03530
C          C       0.77753   0.29731   0.08472   0.65722
C          C       0.85135   0.24855   0.17935  -0.15379
C          C       0.91752   0.32651   0.53528   0.46643
C          C       0.87623   0.37543   0.63849   0.22919
C          C       0.86168   0.36008   0.70156  -0.19468
C          C       0.85943   0.40978   0.74724  -0.02009
C          C       0.87449   0.47553   0.73052  -0.11128
C          C       0.88953   0.49048   0.66708  -0.01740
C          C       0.88894   0.44103   0.62126  -0.17055
C          C       0.84153   0.38845   0.81308   0.56721
C          C       0.90656   0.55844   0.64341   0.56990
C          C       0.17066   0.67468   0.56965   0.65288
C          C       0.24885   0.63497   0.54442  -0.03728
C          C       0.31959   0.66615   0.51090  -0.11563
C          C       0.39329   0.62917   0.48751  -0.03549
C          C       0.39690   0.56132   0.49793  -0.15149
C          C       0.32491   0.52992   0.53012   0.23322
C          C       0.25049   0.56680   0.55303  -0.18075
C          C       0.47216   0.66111   0.45391   0.65481
C          C       0.36869   0.41535   0.50316   0.46502
C          C       0.37621   0.34733   0.52939  -0.02737
C          C       0.38809   0.29605   0.48599  -0.12152
C          C       0.40172   0.23172   0.50672  -0.02628
C          C       0.40404   0.21877   0.57122  -0.08858
C          C       0.39239   0.26930   0.61495  -0.02909
C          C       0.37854   0.33375   0.59388  -0.15032
C          C       0.39080   0.24944   0.68262   0.46753
C          C       0.42297   0.28574   0.79098   0.22950
C          C       0.49713   0.30967   0.82634  -0.18141
C          C       0.49931   0.29959   0.89142  -0.03913
C          C       0.57855   0.32470   0.92916   0.65616
C          C       0.42916   0.26362   0.92086  -0.11354
C          C       0.35540   0.23941   0.88529  -0.03530
C          C       0.27752   0.20270   0.91527   0.65713
C          C       0.35135   0.25145   0.82065  -0.15373
C          C       0.41752   0.17350   0.46472   0.46640
C          C       0.37623   0.12458   0.36151   0.22896
C          C       0.36168   0.13992   0.29844  -0.19462
C          C       0.35943   0.09023   0.25276  -0.02005
C          C       0.37449   0.02448   0.26947  -0.11147
C          C       0.38953   0.00952   0.33291  -0.01727
C          C       0.38894   0.05898   0.37874  -0.16962
C          C       0.34153   0.11155   0.18691   0.56709
C          C       0.40656   0.94156   0.35659   0.56995
C          C       0.32921   0.32553   0.06859   0.65467
C          C       0.25079   0.36530   0.04403  -0.03987
C          C       0.17957   0.33416   0.01090  -0.11588
C          C       0.10599   0.37124   0.98758  -0.03302
C          C       0.10290   0.43914   0.99768  -0.15315
C          C       0.17530   0.47046   0.02963   0.23413
C          C       0.24964   0.43354   0.05241  -0.18257
C          C       0.02715   0.33902   0.95418   0.65489
C          C       0.13126   0.58485   0.00275   0.46600
C          C       0.12356   0.65277   0.02948  -0.02905
C          C       0.11198   0.70414   0.98637  -0.12100
C          C       0.09795   0.76840   0.00739  -0.02666
C          C       0.09484   0.78115   0.07199  -0.08524
C          C       0.10625   0.73052   0.11550  -0.03300
C          C       0.12067   0.66616   0.09408  -0.15055
C          C       0.10633   0.75010   0.18337   0.46603
C          C       0.07552   0.71335   0.29152   0.22995
C          C       0.00172   0.68943   0.32713  -0.18237
C          C       0.00013   0.69962   0.39226  -0.04035
C          C       0.92115   0.67471   0.43022   0.65903
C          C       0.07042   0.73576   0.42151  -0.11262
C          C       0.14381   0.76006   0.38574  -0.03581
C          C       0.22214   0.79697   0.41530   0.65667
C          C       0.14729   0.74779   0.32104  -0.14678
C          C       0.08195   0.82651   0.96551   0.46561
C          C       0.12242   0.87490   0.86199   0.22837
C          C       0.13682   0.85975   0.79875  -0.19455
C          C       0.13959   0.90976   0.75353  -0.01945
C          C       0.12520   0.97545   0.77077  -0.10951
C          C       0.11017   0.99011   0.83429  -0.01921
C          C       0.11027   0.94049   0.87968  -0.17409
C          C       0.15680   0.88936   0.68728   0.56526
C          C       0.09335   0.05798   0.85820   0.57166
N          N       0.67210   0.96139   0.95831  -0.39061
N          N       0.57841   0.79777   0.77408  -0.39776
N          N       0.62274   0.67617   0.09309  -0.37981
N          N       0.82841   0.03817   0.45762  -0.38920
N          N       0.92017   0.20330   0.27454  -0.39662
N          N       0.87549   0.32434   0.59343  -0.38017
N          N       0.32841   0.46183   0.54238  -0.38929
N          N       0.42017   0.29670   0.72545  -0.39654
N          N       0.37549   0.17566   0.40657  -0.38013
N          N       0.17210   0.53861   0.04168  -0.39057
N          N       0.07841   0.70223   0.22592  -0.39798
N          N       0.12274   0.82383   0.90691  -0.38000
O          O       0.90312   0.14576   0.91405  -0.62748
O          O       0.81927   0.23658   0.93005  -0.65730
O          O       0.53756   0.21788   0.06991  -0.66337
O          O       0.45123   0.12945   0.04783  -0.62146
O          O       0.60093   0.92839   0.04979  -0.44216
O          O       0.34657   0.84154   0.59751  -0.63131
O          O       0.43091   0.82800   0.51045  -0.65362
O          O       0.71202   0.67602   0.53097  -0.66123
O          O       0.79744   0.70111   0.61565  -0.62345
O          O       0.63075   0.69468   0.80021  -0.43448
O          O       0.68030   0.56935   0.35523  -0.59276
O          O       0.64871   0.67217   0.32625  -0.62067
O          O       0.56913   0.39495   0.17821  -0.60051
O          O       0.60179   0.43197   0.08232  -0.60919
O          O       0.53648   0.62626   0.01567  -0.44969
O          O       0.59700   0.85411   0.41263  -0.62698
O          O       0.68072   0.76322   0.42856  -0.65687
O          O       0.96211   0.78258   0.57141  -0.66206
O          O       0.04816   0.87042   0.54666  -0.62178
O          O       0.89906   0.07149   0.54930  -0.44265
O          O       0.15297   0.15904   0.09872  -0.63012
O          O       0.06912   0.17225   0.01148  -0.65346
O          O       0.78934   0.32488   0.03163  -0.65958
O          O       0.70115   0.29854   0.11450  -0.62527
O          O       0.86409   0.30539   0.30157  -0.43692
O          O       0.81976   0.42930   0.85656  -0.59379
O          O       0.84684   0.32660   0.82533  -0.61970
O          O       0.93067   0.60588   0.67965  -0.59882
O          O       0.89825   0.56810   0.58389  -0.60848
O          O       0.96359   0.37357   0.51693  -0.44946
O          O       0.09700   0.64590   0.58736  -0.62710
O          O       0.18072   0.73678   0.57144  -0.65668
O          O       0.46211   0.71742   0.42859  -0.66175
O          O       0.54817   0.62958   0.45334  -0.62202
O          O       0.39905   0.42851   0.45070  -0.44222
O          O       0.65297   0.34096   0.90128  -0.62976
O          O       0.56912   0.32776   0.98852  -0.65359
O          O       0.28934   0.17512   0.96836  -0.65973
O          O       0.20115   0.20146   0.88550  -0.62504
O          O       0.36409   0.19461   0.69842  -0.43717
O          O       0.31976   0.07070   0.14344  -0.59373
O          O       0.34684   0.17341   0.17466  -0.61958
O          O       0.43067   0.89412   0.32034  -0.59873
O          O       0.39825   0.93190   0.41611  -0.60864
O          O       0.46359   0.12643   0.48307  -0.44958
O          O       0.40311   0.35424   0.08595  -0.62751
O          O       0.31927   0.26342   0.06995  -0.65740
O          O       0.03756   0.28212   0.93009  -0.66334
O          O       0.95123   0.37055   0.95216  -0.62139
O          O       0.10093   0.57162   0.95021  -0.44184
O          O       0.84657   0.65846   0.40249  -0.63134
O          O       0.93091   0.67200   0.48955  -0.65374
O          O       0.21201   0.82398   0.46903  -0.66127
O          O       0.29744   0.79889   0.38435  -0.62329
O          O       0.13075   0.80532   0.19979  -0.43444
O          O       0.18030   0.93065   0.64477  -0.59246
O          O       0.14871   0.82783   0.67374  -0.62091
O          O       0.06913   0.10505   0.82179  -0.60004
O          O       0.10179   0.06803   0.91767  -0.60944
O          O       0.03647   0.87374   0.98433  -0.44960

