data_crystal

_audit_creation_method 'AiiDA-DDEC plugin'

_cell_length_a        14.48061
_cell_length_b        23.58100
_cell_length_c        26.51889

_cell_angle_alpha     85.11846
_cell_angle_beta     74.17544
_cell_angle_gamma     71.98614

_symmetry_space_group_name_Hall 'P 1'
_symmetry_space_group_name_H-M  'P 1'

loop_
_symmetry_equiv_pos_as_xyz
 'x,y,z'

loop_
_atom_site_label
_atom_site_type_symbol
_atom_site_fract_x
_atom_site_fract_y
_atom_site_fract_z
_atom_site_charge
Eu         Eu      0.08416   0.25029   0.83178   1.77573
Eu         Eu      0.66634   0.24977   0.66838   1.77676
Eu         Eu      0.91589   0.74951   0.16832   1.77481
Eu         Eu      0.33389   0.74975   0.33186   1.77735
Eu         Eu      0.83330   0.33185   0.74943   1.78364
Eu         Eu      0.41511   0.16824   0.75019   1.78248
Eu         Eu      0.16667   0.66799   0.25059   1.78470
Eu         Eu      0.58515   0.83150   0.24976   1.78233
H          H       0.77292   0.21170   0.77754   0.10885
H          H       0.62302   0.09080   0.86954   0.14810
H          H       0.86502   0.12900   0.91345   0.13411
H          H       0.53178   0.00725   0.03837   0.12235
H          H       0.55742   0.94023   0.11422   0.12724
H          H       0.87768   0.89755   0.05215   0.12327
H          H       0.85364   0.96693   0.97728   0.10279
H          H       0.79061   0.06106   0.95962   0.27668
H          H       0.45023   0.28686   0.77914   0.10992
H          H       0.50723   0.40869   0.87042   0.14406
H          H       0.22079   0.37125   0.91374   0.13375
H          H       0.42980   0.49320   0.03775   0.12540
H          H       0.33008   0.56012   0.11378   0.12952
H          H       0.07002   0.60338   0.05313   0.12455
H          H       0.16746   0.53418   0.97799   0.10353
H          H       0.24832   0.43966   0.95953   0.27622
H          H       0.01549   0.21275   0.72058   0.10952
H          H       0.28657   0.09087   0.62936   0.14375
H          H       0.00606   0.12831   0.58586   0.13327
H          H       0.46073   0.00606   0.46171   0.12265
H          H       0.50315   0.93920   0.38574   0.12765
H          H       0.22551   0.89686   0.44691   0.12340
H          H       0.17893   0.96607   0.52182   0.10318
H          H       0.14765   0.05991   0.54039   0.27577
H          H       0.26173   0.28831   0.72285   0.10915
H          H       0.08316   0.40891   0.63022   0.14823
H          H       0.40736   0.37081   0.58710   0.13397
H          H       0.07725   0.49351   0.46186   0.12183
H          H       0.11322   0.55966   0.38558   0.12759
H          H       0.32888   0.60144   0.44798   0.12461
H          H       0.29810   0.53275   0.52319   0.10379
H          H       0.31154   0.43831   0.54041   0.27692
H          H       0.22711   0.78784   0.22237   0.10864
H          H       0.37696   0.90887   0.13063   0.14815
H          H       0.13466   0.87106   0.08672   0.13320
H          H       0.46842   0.99248   0.96198   0.12247
H          H       0.44350   0.05899   0.88586   0.12782
H          H       0.12305   0.10206   0.94766   0.12294
H          H       0.14653   0.03313   0.02278   0.10292
H          H       0.20901   0.93901   0.04066   0.27644
H          H       0.54973   0.71302   0.22084   0.11039
H          H       0.49284   0.59120   0.12960   0.14740
H          H       0.77927   0.62861   0.08623   0.13402
H          H       0.56989   0.50662   0.96238   0.12153
H          H       0.66993   0.43997   0.88628   0.12865
H          H       0.92989   0.39689   0.94686   0.12400
H          H       0.83253   0.46582   0.02203   0.10389
H          H       0.75150   0.56057   0.04016   0.27723
H          H       0.98465   0.78722   0.27939   0.10962
H          H       0.71355   0.90921   0.37054   0.14407
H          H       0.99409   0.87164   0.41409   0.13334
H          H       0.53957   0.99371   0.53825   0.12204
H          H       0.49701   0.06066   0.61429   0.12820
H          H       0.77475   0.10304   0.55305   0.12359
H          H       0.82131   0.03374   0.47812   0.10366
H          H       0.85247   0.94008   0.45952   0.27602
H          H       0.73833   0.71135   0.27717   0.10894
H          H       0.91698   0.59097   0.36989   0.14568
H          H       0.59283   0.62897   0.41302   0.13375
H          H       0.92260   0.50617   0.53828   0.12213
H          H       0.88656   0.43999   0.61450   0.12841
H          H       0.67104   0.39824   0.55190   0.12397
H          H       0.70178   0.46704   0.47680   0.10375
H          H       0.68838   0.56162   0.45970   0.27728
C          C       0.90114   0.20786   0.83801   0.61290
C          C       0.82441   0.17513   0.84601  -0.01706
C          C       0.76340   0.18299   0.81159  -0.10107
C          C       0.69129   0.15248   0.82034  -0.01734
C          C       0.67978   0.11363   0.86275  -0.17564
C          C       0.74347   0.10421   0.89637   0.24485
C          C       0.81530   0.13528   0.88780  -0.18393
C          C       0.62785   0.16097   0.78248   0.63028
C          C       0.67078   0.03286   0.95866   0.47048
C          C       0.69064   0.99323   0.00386  -0.04536
C          C       0.60738   0.98470   0.04213  -0.08868
C          C       0.62168   0.94682   0.08439  -0.08024
C          C       0.71930   0.91563   0.08806  -0.02450
C          C       0.80267   0.92322   0.04927  -0.09255
C          C       0.78853   0.96238   0.00776  -0.13478
C          C       0.73604   0.87262   0.13208   0.62884
C          C       0.25990   0.29197   0.83927   0.60981
C          C       0.32943   0.32438   0.84694  -0.01774
C          C       0.42534   0.31594   0.81292  -0.10394
C          C       0.48888   0.34630   0.82168  -0.01701
C          C       0.45729   0.38584   0.86365  -0.17151
C          C       0.35959   0.39575   0.89694   0.24325
C          C       0.29650   0.36460   0.88844  -0.18459
C          C       0.59114   0.33690   0.78449   0.62753
C          C       0.36921   0.46746   0.95900   0.46704
C          C       0.30444   0.50724   0.00409  -0.04161
C          C       0.35035   0.51569   0.04198  -0.09262
C          C       0.29490   0.55356   0.08427  -0.08124
C          C       0.19359   0.58480   0.08831  -0.02353
C          C       0.14792   0.57745   0.04991  -0.09314
C          C       0.20262   0.53832   0.00835  -0.13610
C          C       0.13394   0.62776   0.13228   0.62986
C          C       0.89080   0.20778   0.66051   0.60918
C          C       0.00045   0.17526   0.65275  -0.01620
C          C       0.05373   0.18362   0.68685  -0.10491
C          C       0.15655   0.15317   0.67819  -0.01697
C          C       0.20682   0.11370   0.63620  -0.17068
C          C       0.15238   0.10384   0.60287   0.24244
C          C       0.04949   0.13504   0.61129  -0.18372
C          C       0.21151   0.16290   0.71558   0.62896
C          C       0.29622   0.03216   0.54077   0.46651
C          C       0.31589   0.99226   0.49583  -0.04214
C          C       0.40791   0.98362   0.45770  -0.08994
C          C       0.43203   0.94589   0.41538  -0.07960
C          C       0.36576   0.91492   0.41145  -0.02338
C          C       0.27450   0.92255   0.45004  -0.09198
C          C       0.24896   0.96158   0.49162  -0.13623
C          C       0.39265   0.87193   0.36750   0.62811
C          C       0.44688   0.29260   0.66281   0.60952
C          C       0.34525   0.32492   0.65458  -0.01649
C          C       0.25762   0.31693   0.68872  -0.10431
C          C       0.16378   0.34717   0.67957  -0.01618
C          C       0.15598   0.38614   0.63719  -0.17527
C          C       0.24393   0.39564   0.60382   0.24535
C          C       0.33821   0.36459   0.61263  -0.18454
C          C       0.07071   0.33830   0.71682   0.62952
C          C       0.16204   0.46749   0.54187   0.46643
C          C       0.18758   0.50701   0.49660  -0.04335
C          C       0.13442   0.51564   0.45812  -0.08991
C          C       0.15392   0.55304   0.41561  -0.07898
C          C       0.22447   0.58373   0.41191  -0.02613
C          C       0.27635   0.57609   0.45089  -0.09438
C          C       0.25908   0.53735   0.49261  -0.13607
C          C       0.24263   0.62660   0.36790   0.63080
C          C       0.09870   0.79202   0.16206   0.61125
C          C       0.17547   0.82468   0.15405  -0.01547
C          C       0.23662   0.81665   0.18840  -0.10190
C          C       0.30879   0.84709   0.17974  -0.01841
C          C       0.32021   0.88604   0.13739  -0.17444
C          C       0.25640   0.89559   0.10380   0.24450
C          C       0.18448   0.86462   0.11233  -0.18352
C          C       0.37200   0.83843   0.21776   0.62877
C          C       0.32943   0.96671   0.04155   0.46944
C          C       0.30966   0.00653   0.99637  -0.04330
C          C       0.39293   0.01495   0.95803  -0.09026
C          C       0.37888   0.05270   0.91561  -0.07934
C          C       0.28128   0.08401   0.91188  -0.02637
C          C       0.19796   0.07638   0.95066  -0.09182
C          C       0.21186   0.03738   0.99230  -0.13602
C          C       0.26388   0.12731   0.86809   0.63070
C          C       0.74019   0.70791   0.16070   0.61074
C          C       0.67063   0.67557   0.15303  -0.01835
C          C       0.57473   0.68397   0.18704  -0.10293
C          C       0.51123   0.65356   0.17832  -0.01769
C          C       0.54279   0.61403   0.13637  -0.17283
C          C       0.64051   0.60418   0.10309   0.24321
C          C       0.70358   0.63533   0.11156  -0.18495
C          C       0.40899   0.66295   0.21552   0.62892
C          C       0.63073   0.53208   0.04168   0.46803
C          C       0.69509   0.49253   0.99630  -0.04057
C          C       0.64930   0.48416   0.95831  -0.09000
C          C       0.70498   0.44650   0.91587  -0.08053
C          C       0.80637   0.41533   0.91170  -0.02343
C          C       0.85193   0.42270   0.95013  -0.09224
C          C       0.79708   0.46162   0.99181  -0.13744
C          C       0.86609   0.37232   0.86772   0.62926
C          C       0.10945   0.79213   0.33942   0.60868
C          C      -0.00019   0.82474   0.34715  -0.01597
C          C       0.94643   0.81637   0.31311  -0.10573
C          C       0.84360   0.84678   0.32178  -0.01656
C          C       0.79331   0.88635   0.36371  -0.17139
C          C       0.84780   0.89613   0.39704   0.24311
C          C       0.95070   0.86492   0.38864  -0.18347
C          C       0.78860   0.83703   0.28444   0.62831
C          C       0.70394   0.96776   0.45918   0.46685
C          C       0.68435   0.00759   0.50418  -0.04281
C          C       0.59232   0.01618   0.54231  -0.08759
C          C       0.56816   0.05393   0.58463  -0.08113
C          C       0.63446   0.08492   0.58851  -0.02344
C          C       0.72578   0.07732   0.54994  -0.09152
C          C       0.75132   0.03826   0.50837  -0.13684
C          C       0.60740   0.12795   0.63243   0.62820
C          C       0.55320   0.70709   0.33726   0.61024
C          C       0.65485   0.67483   0.34549  -0.01820
C          C       0.74248   0.68279   0.31132  -0.10285
C          C       0.83632   0.65265   0.32054  -0.01745
C          C       0.84413   0.61373   0.36295  -0.17243
C          C       0.75619   0.60419   0.39630   0.24493
C          C       0.66192   0.63524   0.38748  -0.18324
C          C       0.92942   0.66139   0.28322   0.62918
C          C       0.83789   0.53234   0.45828   0.46786
C          C       0.81229   0.49274   0.50349  -0.04499
C          C       0.86540   0.48405   0.54200  -0.08980
C          C       0.84591   0.44657   0.58446  -0.08082
C          C       0.77547   0.41579   0.58805  -0.02407
C          C       0.72356   0.42358   0.54907  -0.09431
C          C       0.74076   0.46243   0.50741  -0.13532
C          C       0.75753   0.37279   0.63201   0.62959
N          N       0.73961   0.06457   0.93881  -0.35221
N          N       0.32032   0.43595   0.93900  -0.35324
N          N       0.19553   0.06357   0.56090  -0.35128
N          N       0.24308   0.43531   0.56140  -0.35285
N          N       0.26003   0.93541   0.06148  -0.35285
N          N       0.67981   0.56400   0.06106  -0.35342
N          N       0.80463   0.93639   0.43901  -0.35246
N          N       0.75690   0.56455   0.43872  -0.35388
O          O       0.96239   0.19392   0.86651  -0.59259
O          O       0.90336   0.24820   0.80229  -0.69370
O          O       0.66224   0.18032   0.73720  -0.62517
O          O       0.54513   0.14850   0.79679  -0.61470
O          O       0.59871   0.03719   0.94076  -0.43674
O          O       0.66624   0.88001   0.17479  -0.62380
O          O       0.81907   0.83130   0.12389  -0.60134
O          O       0.17091   0.30572   0.86864  -0.59233
O          O       0.29143   0.25220   0.80311  -0.69569
O          O       0.60540   0.31431   0.74005  -0.63782
O          O       0.65788   0.35167   0.79840  -0.61131
O          O       0.45933   0.46279   0.94137  -0.43534
O          O       0.16165   0.62024   0.17479  -0.61876
O          O       0.05928   0.66914   0.12390  -0.60057
O          O       0.84456   0.19427   0.63124  -0.59146
O          O       0.84678   0.24742   0.69682  -0.69653
O          O       0.15758   0.18540   0.75991  -0.63489
O          O       0.30701   0.14868   0.70186  -0.61444
O          O       0.36426   0.03711   0.55811  -0.43528
O          O       0.45462   0.87954   0.32471  -0.62026
O          O       0.35164   0.83043   0.37606  -0.59906
O          O       0.52258   0.30590   0.63356  -0.58992
O          O       0.45411   0.25337   0.69945  -0.69386
O          O       0.07848   0.31812   0.76206  -0.63004
O          O       0.99025   0.35119   0.70194  -0.61468
O          O       0.07639   0.46335   0.56022  -0.43414
O          O       0.22212   0.61988   0.32525  -0.62489
O          O       0.27723   0.66729   0.37608  -0.60375
O          O       0.03743   0.80603   0.13356  -0.59235
O          O       0.09639   0.75172   0.19781  -0.69300
O          O       0.33795   0.81819   0.26269  -0.62284
O          O       0.45426   0.85143   0.20398  -0.61477
O          O       0.40181   0.96170   0.05941  -0.43623
O          O       0.33369   0.12033   0.82540  -0.62402
O          O       0.18046   0.16831   0.87633  -0.60195
O          O       0.82914   0.69425   0.13132  -0.59172
O          O       0.70854   0.74758   0.19697  -0.69718
O          O       0.39490   0.68539   0.25999  -0.63713
O          O       0.34208   0.64837   0.20160  -0.61194
O          O       0.54093   0.53639   0.06026  -0.43660
O          O       0.83834   0.37979   0.82521  -0.61831
O          O       0.94074   0.33090   0.87604  -0.59983
O          O       0.15573   0.80564   0.36866  -0.59154
O          O       0.15328   0.75234   0.30322  -0.69580
O          O       0.84244   0.81453   0.24007  -0.63561
O          O       0.69312   0.85126   0.29817  -0.61364
O          O       0.63586   0.96287   0.44185  -0.43569
O          O       0.54525   0.12036   0.67514  -0.62033
O          O       0.64839   0.16945   0.62392  -0.59906
O          O       0.47747   0.69399   0.36672  -0.59093
O          O       0.54592   0.74610   0.30045  -0.69332
O          O       0.92177   0.68102   0.23783  -0.62865
O          O       0.00979   0.64878   0.29815  -0.61481
O          O       0.92350   0.53655   0.43999  -0.43343
O          O       0.77785   0.37981   0.67465  -0.62430
O          O       0.72329   0.33192   0.62383  -0.60346

