data_crystal

_audit_creation_method 'AiiDA-DDEC plugin'

_cell_length_a        18.94971
_cell_length_b        20.97276
_cell_length_c        23.89836

_cell_angle_alpha     115.18034
_cell_angle_beta     111.12500
_cell_angle_gamma     93.87966

_symmetry_space_group_name_Hall 'P 1'
_symmetry_space_group_name_H-M  'P 1'

loop_
_symmetry_equiv_pos_as_xyz
 'x,y,z'

loop_
_atom_site_label
_atom_site_type_symbol
_atom_site_fract_x
_atom_site_fract_y
_atom_site_fract_z
_atom_site_charge
Zn         Zn      0.21808   0.58418   0.41729   0.45477
Zn         Zn      0.01000   0.52681   0.32560   0.68539
Zn         Zn      0.28128   0.51114   0.53353   0.68315
Zn         Zn      0.30465   0.52343   0.30165   0.68578
Zn         Zn      0.28539   0.78121   0.51964   0.68227
Zn         Zn      0.78192   0.41581   0.58272   0.45466
Zn         Zn      0.99001   0.47319   0.67440   0.68543
Zn         Zn      0.71872   0.48885   0.46647   0.68326
Zn         Zn      0.69535   0.47657   0.69836   0.68570
Zn         Zn      0.71461   0.21879   0.48036   0.68229
H          H       0.91114   0.65740   0.34991   0.13583
H          H       0.89344   0.78292   0.40610   0.11131
H          H       0.14392   0.87507   0.52636   0.13787
H          H       0.05743   0.95292   0.53914   0.13610
H          H       0.97139   0.92677   0.46302   0.13197
H          H       0.96546   0.91036   0.52805   0.13791
H          H       0.92932   0.41873   0.14657   0.12374
H          H       0.93531   0.35484   0.03449   0.11588
H          H       0.18828   0.42056   0.13114   0.12784
H          H       0.42210   0.87020   0.49474   0.13517
H          H       0.51210   0.87855   0.44139   0.11174
H          H       0.43182   0.64636   0.30228   0.13411
H          H       0.56862   0.82803   0.36461   0.13163
H          H       0.57427   0.73674   0.34304   0.13973
H          H       0.50211   0.75451   0.28422   0.13186
H          H       0.41828   0.41281   0.52429   0.13736
H          H       0.51544   0.35810   0.37645   0.10497
H          H       0.43783   0.42484   0.32325   0.13582
H          H       0.51395   0.34256   0.52700   0.13410
H          H       0.50527   0.28122   0.44433   0.13840
H          H       0.58257   0.36171   0.49786   0.12377
H          H       0.40490   0.86091   0.69334   0.12709
H          H       0.47968   0.86035   0.80276   0.11183
H          H       0.39995   0.62523   0.70417   0.14083
H          H       0.31744   0.51720   0.09212   0.12194
H          H       0.35858   0.45703  -0.00134   0.11435
H          H       0.44920   0.31847   0.08297   0.12417
H          H       0.40737   0.38059   0.17700   0.11386
H          H       0.37034   0.36678   0.90644   0.08084
H          H       0.46130   0.43268   0.97022   0.07963
H          H       0.48946   0.48269   0.71816   0.11105
H          H       0.51705   0.43610   0.80133   0.10936
H          H       0.26963   0.34228   0.72053   0.12439
H          H       0.24265   0.39154   0.63809   0.11565
H          H       0.78425   0.56223   0.21272   0.11026
H          H       0.66279   0.53321   0.10870   0.11663
H          H       0.66886   0.30765   0.02052   0.11954
H          H       0.78631   0.33717   0.12683   0.12062
H          H       0.59002   0.31221   0.91943   0.08627
H          H       0.54695   0.30154   0.97129   0.08561
H          H       0.51386   0.33929   0.82683   0.08481
H          H       0.51343   0.42528   0.88923   0.07891
H          H       0.36724   0.25007   0.81814   0.08673
H          H       0.41886   0.22835   0.88407   0.08707
H          H       0.46073   0.00182   0.64370   0.12116
H          H       0.52190   0.13296   0.73468   0.13264
H          H       0.32526   0.13140   0.78495   0.12043
H          H       0.26658   0.00103   0.69543   0.11890
H          H       0.14183   0.41283   0.54382   0.13377
H          H       0.00578   0.34958   0.51239   0.10353
H          H       0.90550   0.41941   0.36147   0.13749
H          H       0.82047   0.34975   0.38300   0.13712
H          H       0.86129   0.28058   0.39594   0.14711
H          H       0.85909   0.35651   0.46550   0.12339
H          H       0.51777   0.80229   0.87047   0.13134
H          H       0.45624   0.71600   0.84089   0.13919
H          H       0.54060   0.72065   0.82548   0.14053
H          H       0.12078   0.35049   0.00946   0.13958
H          H       0.03363   0.28505   0.98088   0.13513
H          H       0.02746   0.36417   0.97185   0.13830
H          H       0.08886   0.34260   0.65009   0.13584
H          H       0.10657   0.21707   0.59390   0.11138
H          H       0.85608   0.12492   0.47364   0.13800
H          H       0.94258   0.04708   0.46087   0.13611
H          H       0.02861   0.07323   0.53698   0.13241
H          H       0.03454   0.08964   0.47195   0.13771
H          H       0.07068   0.58127   0.85343   0.12372
H          H       0.06469   0.64516   0.96552   0.11593
H          H       0.81172   0.57944   0.86886   0.12788
H          H       0.57790   0.12980   0.50526   0.13514
H          H       0.48790   0.12144   0.55861   0.11177
H          H       0.56818   0.35364   0.69773   0.13416
H          H       0.43138   0.17197   0.63539   0.13182
H          H       0.42573   0.26326   0.65696   0.13953
H          H       0.49789   0.24549   0.71578   0.13207
H          H       0.58172   0.58719   0.47571   0.13713
H          H       0.48456   0.64190   0.62355   0.10497
H          H       0.56217   0.57516   0.67676   0.13608
H          H       0.48605   0.65744   0.47300   0.13387
H          H       0.49473   0.71878   0.55567   0.13833
H          H       0.41743   0.63828   0.50215   0.12380
H          H       0.59510   0.13909   0.30666   0.12732
H          H       0.52032   0.13964   0.19724   0.11185
H          H       0.60005   0.37476   0.29583   0.14055
H          H       0.68257   0.48279   0.90788   0.12217
H          H       0.64142   0.54296   0.00135   0.11459
H          H       0.55080   0.68153   0.91704   0.12516
H          H       0.59263   0.61941   0.82300   0.11365
H          H       0.62966   0.63322   0.09356   0.08095
H          H       0.53870   0.56732   0.02978   0.07981
H          H       0.51054   0.51730   0.28184   0.11111
H          H       0.48295   0.56389   0.19867   0.10925
H          H       0.73037   0.65772   0.27947   0.12420
H          H       0.75735   0.60845   0.36191   0.11578
H          H       0.21575   0.43777   0.78729   0.11043
H          H       0.33721   0.46679   0.89130   0.11685
H          H       0.33114   0.69234   0.97949   0.11945
H          H       0.21370   0.66283   0.87317   0.12043
H          H       0.40998   0.68779   0.08058   0.08625
H          H       0.45305   0.69845   0.02871   0.08515
H          H       0.48614   0.66071   0.17318   0.08486
H          H       0.48657   0.57472   0.11077   0.07905
H          H       0.63276   0.74992   0.18186   0.08700
H          H       0.58114   0.77164   0.11593   0.08677
H          H       0.53927   0.99817   0.35630   0.12121
H          H       0.47810   0.86704   0.26532   0.13273
H          H       0.67474   0.86859   0.21505   0.12029
H          H       0.73342  -0.00104   0.30457   0.11876
H          H       0.85817   0.58717   0.45618   0.13356
H          H       0.99423   0.65042   0.48761   0.10327
H          H       0.09450   0.58058   0.63853   0.13773
H          H       0.17954   0.65024   0.61700   0.13746
H          H       0.13871   0.71942   0.60407   0.14694
H          H       0.14091   0.64349   0.53450   0.12326
H          H       0.48223   0.19771   0.12953   0.13139
H          H       0.54376   0.28399   0.15912   0.13934
H          H       0.45940   0.27934   0.17453   0.14046
H          H       0.87923   0.64950   0.99055   0.13960
H          H       0.96637   0.71495   0.01913   0.13515
H          H       0.97255   0.63583   0.02816   0.13858
C          C       0.10289   0.75869   0.45550   0.13117
C          C       0.03776   0.69747   0.40702   0.11784
C          C       0.96050   0.70489   0.38771  -0.15563
C          C       0.95212   0.77468   0.41917  -0.15328
C          C       0.01726   0.83692   0.46892   0.16827
C          C       0.09328   0.82929   0.48728  -0.22394
C          C       0.00233   0.91068   0.50160  -0.42609
C          C       0.12885   0.45655   0.19748   0.13396
C          C       0.05666   0.45707   0.20243   0.12405
C          C       0.98501   0.41995   0.14330  -0.14516
C          C       0.98943   0.38420   0.08134  -0.15477
C          C       0.06198   0.38373   0.07567   0.17116
C          C       0.13242   0.41990   0.13411  -0.22462
C          C       0.38053   0.69050   0.37396   0.13197
C          C       0.37680   0.75286   0.42746   0.11965
C          C       0.42417   0.82249   0.45296  -0.15279
C          C       0.47378   0.82596   0.42293  -0.15665
C          C       0.47793   0.76348   0.36882   0.17327
C          C       0.43064   0.69495   0.34376  -0.22015
C          C       0.53385   0.77147   0.33901  -0.42601
C          C       0.38136   0.45291   0.39238   0.11751
C          C       0.37589   0.44913   0.44846   0.13518
C          C       0.42094   0.41277   0.47961  -0.22971
C          C       0.47026   0.37952   0.45226   0.17414
C          C       0.47507   0.38381   0.39558  -0.13564
C          C       0.43202   0.42016   0.36503  -0.13638
C          C       0.52047   0.33922   0.48217  -0.42064
C          C       0.35983   0.74247   0.63738   0.11736
C          C       0.40353   0.81034   0.69584  -0.14434
C          C       0.44473   0.80909   0.75635  -0.15313
C          C       0.44401   0.74334   0.76081   0.16946
C          C       0.40010   0.67645   0.70293  -0.22338
C          C       0.35814   0.67691   0.64124   0.12980
C          C       0.33759   0.49180   0.19712   0.53684
C          C       0.36013   0.45290   0.14032  -0.07148
C          C       0.34643   0.47369   0.08966  -0.07523
C          C       0.36974   0.43984   0.03728  -0.23894
C          C       0.40686   0.38377   0.03551   0.26116
C          C       0.42016   0.36192   0.08560  -0.20988
C          C       0.39689   0.39628   0.13740  -0.07337
C          C       0.43104   0.37413   0.94078  -0.03322
C          C       0.35047   0.47131   0.62561   0.54371
C          C       0.36464   0.44003   0.67283  -0.07021
C          C       0.44159   0.45173   0.71883  -0.06803
C          C       0.45706   0.42517   0.76532  -0.23300
C          C       0.39452   0.38612   0.76568   0.25693
C          C       0.31706   0.37310   0.71931  -0.21555
C          C       0.30242   0.40026   0.67355  -0.07463
C          C       0.79299   0.45130   0.17636  -0.07001
C          C       0.75801   0.50665   0.17070  -0.06752
C          C       0.69124   0.49091   0.11241  -0.21245
C          C       0.65917   0.41925   0.05744   0.25840
C          C       0.69293   0.36327   0.06253  -0.24035
C          C       0.75898   0.37969   0.12205  -0.06888
C          C       0.55516   0.33467   0.94772  -0.03148
C          C       0.47407   0.33219   0.89924   0.05766
C          C       0.48176   0.36714   0.85618  -0.03128
C          C       0.42550   0.25221   0.85267  -0.03938
C          C       0.32137   0.91543   0.61070   0.54139
C          C       0.35908   0.99350   0.66337  -0.07254
C          C       0.43159   0.03088   0.67476  -0.08339
C          C       0.46582   0.10352   0.72525  -0.21551
C          C       0.42745   0.14046   0.76498   0.26017
C          C       0.35526   0.10381   0.75433  -0.24197
C          C       0.32206   0.03074   0.70399  -0.06932
C          C       0.03236   0.45370   0.41917   0.13398
C          C       0.09868   0.45133   0.46964   0.12114
C          C       0.09057   0.41372   0.50466  -0.15054
C          C       0.01494   0.37920   0.48656  -0.14517
C          C       0.94737   0.38029   0.43508   0.17676
C          C       0.95573   0.41794   0.40109  -0.22465
C          C       0.86775   0.33981   0.41876  -0.42278
C          C       0.86808   0.46791   0.23576   0.54527
C          C       0.49215   0.74607   0.82815  -0.42289
C          C       0.06113   0.34381   0.00588  -0.42645
C          C       0.89712   0.24130   0.54451   0.13159
C          C       0.96225   0.30253   0.59299   0.11786
C          C       0.03950   0.29511   0.61229  -0.15569
C          C       0.04789   0.22531   0.58083  -0.15328
C          C       0.98274   0.16308   0.53108   0.16818
C          C       0.90672   0.17070   0.51272  -0.22405
C          C       0.99767   0.08931   0.49840  -0.42610
C          C       0.87116   0.54345   0.80252   0.13396
C          C       0.94334   0.54292   0.79758   0.12394
C          C       0.01500   0.58004   0.85670  -0.14519
C          C       0.01057   0.61580   0.91866  -0.15460
C          C       0.93802   0.61627   0.92433   0.17109
C          C       0.86758   0.58010   0.86589  -0.22468
C          C       0.61946   0.30949   0.62604   0.13227
C          C       0.62320   0.24713   0.57254   0.11953
C          C       0.57583   0.17751   0.54704  -0.15255
C          C       0.52622   0.17403   0.57707  -0.15668
C          C       0.52207   0.23651   0.63119   0.17352
C          C       0.56936   0.30505   0.65625  -0.22048
C          C       0.46615   0.22853   0.66100  -0.42610
C          C       0.61864   0.54709   0.60762   0.11741
C          C       0.62411   0.55087   0.55154   0.13525
C          C       0.57906   0.58723   0.52039  -0.22983
C          C       0.52974   0.62048   0.54775   0.17410
C          C       0.52493   0.61619   0.60443  -0.13586
C          C       0.56798   0.57984   0.63497  -0.13610
C          C       0.47953   0.66078   0.51783  -0.42068
C          C       0.64017   0.25753   0.36262   0.11748
C          C       0.59647   0.18965   0.30416  -0.14415
C          C       0.55527   0.19091   0.24365  -0.15326
C          C       0.55599   0.25666   0.23920   0.16953
C          C       0.59990   0.32354   0.29708  -0.22353
C          C       0.64186   0.32308   0.35876   0.12952
C          C       0.66241   0.50820   0.80289   0.53698
C          C       0.63987   0.54710   0.85968  -0.07145
C          C       0.65357   0.52631   0.91035  -0.07525
C          C       0.63026   0.56016   0.96273  -0.23862
C          C       0.59314   0.61623   0.96450   0.26108
C          C       0.57984   0.63807   0.91440  -0.21116
C          C       0.60311   0.60371   0.86260  -0.07365
C          C       0.56897   0.62586   0.05923  -0.03303
C          C       0.64952   0.52869   0.37439   0.54344
C          C       0.63536   0.55996   0.32717  -0.06996
C          C       0.55841   0.54827   0.28117  -0.06790
C          C       0.54294   0.57483   0.23469  -0.23305
C          C       0.60548   0.61388   0.23432   0.25679
C          C       0.68294   0.62690   0.28069  -0.21551
C          C       0.69758   0.59974   0.32645  -0.07469
C          C       0.20701   0.54870   0.82365  -0.07004
C          C       0.24199   0.49335   0.82930  -0.06772
C          C       0.30876   0.50909   0.88759  -0.21218
C          C       0.34083   0.58075   0.94256   0.25828
C          C       0.30708   0.63673   0.93747  -0.24019
C          C       0.24102   0.62030   0.87796  -0.06916
C          C       0.44484   0.66533   0.05228  -0.03114
C          C       0.52593   0.66781   0.10077   0.05749
C          C       0.51824   0.63286   0.14382  -0.03118
C          C       0.57450   0.74779   0.14733  -0.03953
C          C       0.67863   0.08456   0.38930   0.54138
C          C       0.64092   0.00650   0.33663  -0.07241
C          C       0.56841   0.96911   0.32524  -0.08352
C          C       0.53418   0.89647   0.27475  -0.21527
C          C       0.57255   0.85954   0.23502   0.25995
C          C       0.64474   0.89619   0.24568  -0.24170
C          C       0.67794   0.96925   0.29601  -0.06947
C          C       0.96764   0.54630   0.58083   0.13389
C          C       0.90132   0.54867   0.53036   0.12096
C          C       0.90943   0.58628   0.49534  -0.15045
C          C       0.98506   0.62080   0.51344  -0.14537
C          C       0.05264   0.61970   0.56492   0.17696
C          C       0.04427   0.58205   0.59891  -0.22467
C          C       0.13225   0.66019   0.58125  -0.42302
C          C       0.13193   0.53209   0.76424   0.54568
C          C       0.50785   0.25393   0.17185  -0.42325
C          C       0.93887   0.65618   0.99413  -0.42656
N          N       0.16841   0.73309   0.46283  -0.20780
N          N       0.14457   0.66047   0.42213  -0.01349
N          N       0.06665   0.63760   0.38799  -0.20753
N          N       0.07432   0.49753   0.27054  -0.19996
N          N       0.15242   0.52010   0.30526  -0.01346
N          N       0.18658   0.49628   0.26274  -0.20336
N          N       0.33041   0.63192   0.36289  -0.20856
N          N       0.29776   0.65642   0.40659  -0.01552
N          N       0.32397   0.72892   0.44569  -0.20854
N          N       0.32268   0.48649   0.46240  -0.20885
N          N       0.29736   0.51226   0.41805  -0.02526
N          N       0.33171   0.49273   0.37550  -0.20545
N          N       0.16324   0.49080   0.47457  -0.20220
N          N       0.13846   0.51635   0.43034  -0.02213
N          N       0.05995   0.49500   0.39629  -0.21069
N          N       0.31242   0.62135   0.57631  -0.21508
N          N       0.28783   0.65061   0.53497  -0.02191
N          N       0.31517   0.72324   0.57037  -0.20432
N          N       0.83159   0.26690   0.53718  -0.20803
N          N       0.85543   0.33953   0.57788  -0.01353
N          N       0.93335   0.36239   0.61201  -0.20765
N          N       0.92569   0.50247   0.72947  -0.19981
N          N       0.84758   0.47990   0.69475  -0.01366
N          N       0.81343   0.50372   0.73727  -0.20329
N          N       0.66959   0.36807   0.63712  -0.20843
N          N       0.70224   0.34357   0.59342  -0.01582
N          N       0.67603   0.27107   0.55431  -0.20851
N          N       0.67732   0.51351   0.53761  -0.20949
N          N       0.70263   0.48774   0.58195  -0.02488
N          N       0.66829   0.50727   0.62450  -0.20493
N          N       0.83677   0.50920   0.52544  -0.20257
N          N       0.86154   0.48365   0.56966  -0.02166
N          N       0.94005   0.50499   0.60371  -0.21046
N          N       0.68758   0.37864   0.42369  -0.21535
N          N       0.71217   0.34938   0.46503  -0.02165
N          N       0.68483   0.27675   0.42963  -0.20397
O          O       0.27727   0.45994   0.58479  -0.54166
O          O       0.40609   0.50761   0.62571  -0.54685
O          O       0.40319   0.35885   0.81018  -0.21227
O          O       0.89913   0.41822   0.24089  -0.54088
O          O       0.90357   0.53670   0.27995  -0.54877
O          O       0.59513   0.40915   0.00054  -0.20749
O          O       0.26104   0.88128   0.60695  -0.54365
O          O       0.35341   0.88319   0.56967  -0.54980
O          O       0.46511   0.21232   0.81317  -0.20864
O          O       0.43193   0.34629   0.98647  -0.20510
O          O       0.30790   0.54441   0.20188  -0.54305
O          O       0.35037   0.46733   0.24117  -0.54315
O          O       0.72273   0.54006   0.41521  -0.54163
O          O       0.59391   0.49238   0.37430  -0.54655
O          O       0.59681   0.64115   0.18982  -0.21250
O          O       0.10087   0.58177   0.75911  -0.54156
O          O       0.09644   0.46330   0.72006  -0.54864
O          O       0.40487   0.59084  -0.00053  -0.20726
O          O       0.73896   0.11871   0.39305  -0.54391
O          O       0.64659   0.11680   0.43033  -0.54960
O          O       0.53489   0.78767   0.18683  -0.20848
O          O       0.56807   0.65370   0.01353  -0.20543
O          O       0.69211   0.45559   0.79812  -0.54261
O          O       0.64963   0.53267   0.75884  -0.54370

