data_crystal

_audit_creation_method 'AiiDA-DDEC plugin'

_cell_length_a         8.29427
_cell_length_b        12.43651
_cell_length_c        33.22301

_cell_angle_alpha     89.92185
_cell_angle_beta     90.00452
_cell_angle_gamma     90.03318

_symmetry_space_group_name_Hall 'P 1'
_symmetry_space_group_name_H-M  'P 1'

loop_
_symmetry_equiv_pos_as_xyz
 'x,y,z'

loop_
_atom_site_label
_atom_site_type_symbol
_atom_site_fract_x
_atom_site_fract_y
_atom_site_fract_z
_atom_site_charge
Li         Li      0.01444   0.83717   0.03168   0.81061
Li         Li      0.48184   0.16346   0.53282   0.81118
Li         Li      0.98366   0.33524   0.46885   0.81183
Li         Li      0.51458   0.66535   0.96835   0.81075
H          H       0.30964   0.51610   0.20614   0.05317
H          H       0.43735   0.42326   0.15154   0.07509
H          H       0.50524   0.54259   0.12898   0.09880
H          H       0.68556   0.41080   0.18679   0.08248
H          H       0.74651   0.53470   0.16609   0.08388
H          H       0.54245   0.49455   0.24069   0.05478
H          H       0.81869   0.65218   0.23078   0.05943
H          H       0.79631   0.42932   0.26907   0.07580
H          H       0.92246   0.46744   0.22914   0.08506
H          H       0.08474   0.58382   0.27257   0.07751
H          H       0.07126   0.45637   0.29520   0.08618
H          H       0.03459   0.61254   0.34293   0.05554
H          H       0.74730   0.45794   0.33600   0.09312
H          H       0.93134   0.43145   0.35993   0.09342
H          H       0.87810   0.57559   0.40961   0.03588
H          H       0.61588   0.67362   0.40843   0.09914
H          H       0.55829   0.60432   0.36462   0.09911
H          H       0.85513   0.75178   0.37363   0.09047
H          H       0.67538   0.79021   0.35018   0.08652
H          H       0.35278   0.62287   0.26549   0.08049
H          H       0.33565   0.75244   0.24449   0.08143
H          H       0.61441   0.79800   0.26395   0.08275
H          H       0.50269   0.75557   0.30579   0.08654
H          H       0.61973   0.57468   0.30207   0.05820
H          H       0.29225   0.66691   0.13418   0.06475
H          H       0.20927   0.47635   0.12428   0.09173
H          H       0.07615   0.48566   0.16554   0.07766
H          H       0.93266   0.49798   0.10058   0.12398
H          H       0.90772   0.61935   0.12704   0.10323
H          H       0.03050   0.73289   0.16435   0.11726
H          H       0.19774   0.77083   0.19378   0.11122
H          H       0.07502   0.66137   0.20917   0.11543
H          H       0.97623   0.74696   0.26784   0.12013
H          H       0.02067   0.79210   0.31710   0.11914
H          H       0.84815   0.84094   0.29172   0.11851
H          H       0.60554   0.69992   0.15513   0.12615
H          H       0.66306   0.76985   0.19934   0.11523
H          H       0.47106   0.79226   0.17766   0.11692
H          H       0.64296   0.55844   0.45910   0.05437
H          H       0.54254   0.40919   0.50196   0.06656
H          H       0.63994   0.27185   0.42947   0.06096
H          H       0.32680   0.32075   0.47449   0.03675
H          H       0.44278   0.37440   0.38902   0.06635
H          H       0.78842   0.36723   0.52053   0.35038
H          H       0.68343   0.15043   0.46941   0.34992
H          H       0.20619   0.20966   0.42886   0.32539
H          H       0.20404   0.49067   0.38505   0.07838
H          H       0.14338   0.35413   0.39237   0.08835
H          H       0.17969   0.49820   0.45760   0.37440
H          H       0.18947   0.48434   0.70612   0.05353
H          H       0.06105   0.57726   0.65153   0.07563
H          H       0.99335   0.45788   0.62905   0.09945
H          H       0.81315   0.58928   0.68683   0.08238
H          H       0.75241   0.46530   0.66628   0.08407
H          H       0.95743   0.50568   0.74067   0.05487
H          H       0.68100   0.34811   0.73123   0.05917
H          H       0.70439   0.57101   0.76923   0.07607
H          H       0.57763   0.53299   0.72944   0.08527
H          H       0.41564   0.41683   0.77306   0.07750
H          H       0.42959   0.54424   0.79557   0.08615
H          H       0.46611   0.38770   0.84334   0.05613
H          H       0.75328   0.54242   0.83657   0.09316
H          H       0.56898   0.56859   0.86041   0.09405
H          H       0.62182   0.42367   0.90999   0.03583
H          H       0.88490   0.32636   0.90889   0.09886
H          H       0.94214   0.39624   0.86511   0.09922
H          H       0.64604   0.24805   0.87405   0.09003
H          H       0.82595   0.21023   0.85058   0.08672
H          H       0.14757   0.37720   0.76549   0.08049
H          H       0.16405   0.24762   0.74458   0.08133
H          H       0.88543   0.20240   0.76431   0.08280
H          H      -0.00211   0.24455   0.80603   0.08666
H          H       0.88102   0.42567   0.80226   0.05849
H          H       0.20688   0.33407   0.63414   0.06402
H          H       0.28793   0.52509   0.62423   0.09097
H          H       0.42144   0.51603   0.66537   0.07717
H          H       0.56440   0.50531   0.60043   0.12408
H          H       0.59111   0.38381   0.62689   0.10290
H          H       0.46929   0.26859   0.66406   0.11728
H          H       0.30270   0.23014   0.69369   0.11061
H          H       0.42532   0.33974   0.70894   0.11606
H          H       0.52387   0.25383   0.76839   0.12017
H          H       0.48006   0.20831   0.81769   0.11899
H          H       0.65225   0.15966   0.79217   0.11832
H          H       0.89374   0.30016   0.65533   0.12553
H          H       0.83646   0.23035   0.69966   0.11460
H          H       0.02836   0.20795   0.67796   0.11557
H          H       0.85564   0.44114   0.95991   0.05445
H          H       0.95412   0.59225   0.00248   0.06576
H          H       0.85676   0.72627   0.92904   0.06136
H          H       0.17068   0.68161   0.97429   0.03823
H          H       0.05437   0.62385   0.88930   0.06614
H          H       0.70722   0.63491   0.02050   0.34559
H          H       0.81123   0.84970   0.96808   0.34992
H          H       0.28856   0.79086   0.92803   0.32459
H          H       0.29290   0.50885   0.88518   0.07903
H          H       0.35313   0.64556   0.89204   0.08911
H          H       0.32084   0.50265   0.95783   0.37409
H          H       0.68954   0.01574   0.29401   0.05383
H          H       0.56078   0.92230   0.34835   0.07532
H          H       0.49356   0.04136   0.37111   0.09954
H          H       0.31224   0.91082   0.31329   0.08263
H          H       0.25233   0.03491   0.33388   0.08421
H          H       0.45702   0.99432   0.25944   0.05578
H          H       0.18071   0.15177   0.26897   0.05943
H          H       0.20457   0.92938   0.23060   0.07573
H          H       0.07774   0.96655   0.27048   0.08526
H          H       0.91526   0.08295   0.22709   0.07727
H          H       0.92978   0.95590   0.20429   0.08618
H          H       0.96564   0.11335   0.15688   0.05609
H          H       0.25307   0.95893   0.16333   0.09383
H          H       0.06884   0.93287   0.13943   0.09454
H          H       0.12149   0.07844   0.09011   0.03626
H          H       0.38424   0.17619   0.09138   0.09898
H          H       0.44182   0.10583   0.13502   0.09969
H          H       0.14533   0.25363   0.12641   0.09041
H          H       0.32518   0.29142   0.14995   0.08680
H          H       0.64718   0.12283   0.23462   0.08050
H          H       0.66437   0.25229   0.25559   0.08117
H          H       0.38588   0.29798   0.23594   0.08259
H          H       0.49796   0.25580   0.19418   0.08687
H          H       0.38039   0.07499   0.19779   0.05778
H          H       0.70614   0.16640   0.36591   0.06371
H          H       0.78683   0.97501   0.37593   0.09158
H          H       0.92222   0.98477   0.33519   0.07782
H          H       0.06239   0.99596   0.40052   0.12463
H          H       0.08906   0.11765   0.37424   0.10323
H          H       0.96951   0.23120   0.33597   0.11677
H          H       0.80306   0.26981   0.30635   0.11097
H          H       0.92480   0.15983   0.29118   0.11572
H          H       0.02355   0.24632   0.23207   0.11929
H          H       0.97967   0.29252   0.18288   0.11904
H          H       0.15194   0.34092   0.20847   0.11821
H          H       0.39368   0.19937   0.34480   0.12550
H          H       0.33665   0.26961   0.30057   0.11583
H          H       0.52861   0.29182   0.32231   0.11697
H          H       0.35565   0.06147   0.04006   0.05406
H          H       0.45431   0.91031   0.99752   0.06589
H          H       0.35592   0.77639   0.07093   0.06123
H          H       0.67032   0.82085   0.02568   0.03855
H          H       0.55433   0.87879   0.11075   0.06593
H          H       0.20714   0.86760   0.97948   0.34567
H          H       0.31081   0.65301   0.03184   0.35049
H          H       0.78796   0.71176   0.07204   0.32565
H          H       0.79260   0.99402   0.11481   0.07858
H          H       0.85299   0.85732   0.10805   0.08881
H          H       0.82091  -0.00023   0.04210   0.37391
H          H       0.81020   0.98423   0.79359   0.05374
H          H       0.93794   0.07763   0.84805   0.07557
H          H       0.00525   0.95851   0.87087   0.09888
H          H       0.18653   0.08943   0.81297   0.08273
H          H       0.24674   0.96559   0.83382   0.08349
H          H       0.04305   0.00541   0.75914   0.05605
H          H       0.31904   0.84788   0.76929   0.05951
H          H       0.29661   0.07031   0.73067   0.07607
H          H       0.42276   0.03278   0.77067   0.08568
H          H       0.58518   0.91616   0.72743   0.07725
H          H       0.57151   0.04328   0.70457   0.08581
H          H       0.53512   0.88642   0.65712   0.05562
H          H       0.24741   0.04056   0.66380   0.09345
H          H       0.43124   0.06719   0.63982   0.09340
H          H       0.37824   0.92250   0.59031   0.03579
H          H       0.11646   0.82396   0.59168   0.09902
H          H       0.05867   0.89358   0.63541   0.09975
H          H       0.35588   0.74657   0.62666   0.09184
H          H       0.17627   0.70811   0.65019   0.08654
H          H       0.85325   0.87702   0.73442   0.08089
H          H       0.83553   0.74763   0.75556   0.08209
H          H       0.11419   0.70166   0.73620   0.08260
H          H       0.00282   0.74394   0.69429   0.08669
H          H       0.12042   0.92462   0.69785   0.05804
H          H       0.79220   0.83429   0.86579   0.06460
H          H       0.71002   0.02542   0.87513   0.09131
H          H       0.57630   0.01500   0.83403   0.07701
H          H       0.43405   0.00429   0.89920   0.12404
H          H       0.40834   0.88245   0.87314   0.10295
H          H       0.53023   0.76817   0.83570   0.11728
H          H       0.69745   0.72965   0.80639   0.11089
H          H       0.57526   0.83900   0.79074   0.11523
H          H       0.47672   0.75301   0.73247   0.11953
H          H       0.52100   0.70699   0.68333   0.11898
H          H       0.34844   0.65860   0.70884   0.11804
H          H       0.10559   0.80065   0.84489   0.12583
H          H       0.16280   0.73030   0.80076   0.11559
H          H       0.97074   0.70821   0.82246   0.11672
H          H       0.14266   0.94050   0.54056   0.05479
H          H       0.04158   0.09248   0.49871   0.06554
H          H       0.14312   0.22590   0.57192   0.06204
H          H       0.82699   0.18175   0.52743   0.03780
H          H       0.94317   0.12006   0.61212   0.06626
H          H       0.28937   0.13284   0.48023   0.34602
H          H       0.18517   0.34965   0.53223   0.35090
H          H       0.71095   0.28908   0.57398   0.32420
H          H       0.70404   0.00498   0.61525   0.07817
H          H       0.64404   0.14189   0.60856   0.08873
H          H       0.67980   0.00075   0.54254   0.37288
C          C       0.36956   0.57048   0.18451  -0.06297
C          C       0.48734   0.50275   0.15818  -0.19211
C          C       0.64763   0.49437   0.18202  -0.18909
C          C       0.61085   0.55186   0.22181  -0.05165
C          C       0.75191   0.59026   0.24760  -0.03329
C          C       0.86746   0.49703   0.25711  -0.18142
C          C       0.00005   0.52791   0.28711  -0.18492
C          C       0.93233   0.58017   0.32550  -0.01624
C          C       0.84713   0.49638   0.35228  -0.24968
C          C       0.77885   0.54460   0.39081   0.19147
C          C       0.66307   0.63632   0.38090  -0.23242
C          C       0.75332   0.72059   0.35584  -0.20053
C          C       0.82132   0.67776   0.31563   0.14284
C          C       0.42096   0.68652   0.24985  -0.21177
C          C       0.55695   0.72712   0.27758  -0.17749
C          C       0.68445   0.64042   0.28673  -0.05528
C          C       0.48713   0.64032   0.21022   0.14904
C          C       0.23488   0.62281   0.15912   0.04758
C          C       0.13102   0.53190   0.14082  -0.17133
C          C      -0.00227   0.56894   0.11202  -0.31018
C          C       0.06406   0.62950   0.07580   0.65104
C          C       0.12922   0.70136   0.18293  -0.40588
C          C       0.92204   0.76895   0.29676  -0.43589
C          C       0.56171   0.73014   0.18418  -0.42664
C          C       0.60948   0.48073   0.44581   0.26128
C          C       0.62430   0.39038   0.47696   0.07390
C          C       0.56992   0.28462   0.45717   0.11819
C          C       0.39154   0.29946   0.44666   0.08393
C          C       0.37705   0.39421   0.41686   0.06533
C          C       0.20461   0.42276   0.40628   0.01430
C          C       0.12956   0.42998   0.68452  -0.06338
C          C       0.01138   0.49767   0.65821  -0.19462
C          C       0.85130   0.50578   0.68212  -0.18747
C          C       0.88873   0.44833   0.72193  -0.05221
C          C       0.74809   0.41005   0.74790  -0.03332
C          C       0.63288   0.50338   0.75740  -0.18208
C          C       0.50057   0.47263   0.78751  -0.18517
C          C       0.56840   0.42019   0.82592  -0.01660
C          C       0.65331   0.50378   0.85276  -0.24952
C          C       0.72123   0.45515   0.89131   0.19062
C          C       0.83753   0.36383   0.88138  -0.23216
C          C       0.74768   0.27962   0.85626  -0.20039
C          C       0.67941   0.32265   0.81606   0.14187
C          C       0.07899   0.31365   0.74996  -0.21204
C          C       0.94329   0.27317   0.77785  -0.17721
C          C       0.81605   0.35995   0.78704  -0.05459
C          C       0.01238   0.35991   0.71033   0.14686
C          C       0.26426   0.37820   0.65904   0.05026
C          C       0.36692   0.46972   0.64068  -0.16974
C          C       0.50058   0.43378   0.61184  -0.31176
C          C       0.43497   0.37309   0.57564   0.65044
C          C       0.37081   0.29980   0.68277  -0.40554
C          C       0.57842   0.23160   0.79727  -0.43510
C          C       0.93771   0.27007   0.68441  -0.42319
C          C       0.88905   0.51886   0.94657   0.26088
C          C       0.87255   0.60975   0.97731   0.07490
C          C       0.92621   0.71501   0.95691   0.11731
C          C       0.10493   0.70086   0.94643   0.08099
C          C       0.12070   0.60508   0.91719   0.06640
C          C       0.29301   0.57690   0.90629   0.01144
C          C       0.62940   0.06996   0.31559  -0.06377
C          C       0.51121   0.00201   0.34185  -0.19418
C          C       0.35091   0.99425   0.31800  -0.18839
C          C       0.38845   0.05169   0.27818  -0.05189
C          C       0.24790   0.09008   0.25223  -0.03536
C          C       0.13287   0.99669   0.24257  -0.18130
C          C       0.00041   0.02758   0.21252  -0.18529
C          C       0.06803   0.08075   0.17422  -0.01718
C          C       0.15308  -0.00232   0.14721  -0.25158
C          C       0.22097   0.04692   0.10874   0.19043
C          C       0.33706   0.13829   0.11884  -0.23248
C          C       0.24707   0.22197   0.14412  -0.20103
C          C       0.17898   0.17827   0.18425   0.14353
C          C       0.57898   0.18641   0.25019  -0.21170
C          C       0.44337   0.22718   0.22236  -0.17781
C          C       0.31576   0.14059   0.21314  -0.05268
C          C       0.51231   0.14003   0.28980   0.14857
C          C       0.76378   0.12200   0.34113   0.04818
C          C       0.86619   0.03078   0.35975  -0.17050
C          C      -0.00179   0.06718   0.38897  -0.31142
C          C       0.93147   0.12733   0.42516   0.65163
C          C       0.87071   0.20007   0.31733  -0.40460
C          C       0.07807   0.26899   0.20323  -0.43469
C          C       0.43783   0.22978   0.31578  -0.42618
C          C       0.38909   0.98373   0.05340   0.26421
C          C       0.37250   0.89282   0.02266   0.07399
C          C       0.42581   0.78758   0.04310   0.11696
C          C       0.60457   0.80166   0.05358   0.08151
C          C       0.62060   0.89744   0.08282   0.06603
C          C       0.79293   0.92586   0.09372   0.01227
C          C       0.86991   0.93003   0.81531  -0.06273
C          C       0.98772  -0.00199   0.84160  -0.19380
C          C       0.14816   0.00596   0.81781  -0.18768
C          C       0.11129   0.94820   0.77808  -0.05459
C          C       0.25229   0.90958   0.75237  -0.03322
C          C       0.36780   0.00281   0.74274  -0.18274
C          C       0.50043   0.97175   0.71280  -0.18413
C          C       0.43283   0.91887   0.67451  -0.01607
C          C       0.34738   0.00211   0.64761  -0.25042
C          C       0.27909   0.95333   0.60917   0.19109
C          C       0.16352   0.86155   0.61918  -0.23239
C          C       0.25399   0.77780   0.64439  -0.20145
C          C       0.32184   0.82132   0.68453   0.14052
C          C       0.92112   0.81342   0.75014  -0.21285
C          C       0.05705   0.77250   0.72250  -0.17804
C          C       0.18487   0.85901   0.71330  -0.05326
C          C       0.98734   0.85989   0.78974   0.14975
C          C       0.73504   0.87811   0.84076   0.04713
C          C       0.63155   0.96940   0.85885  -0.17053
C          C       0.49882   0.93306   0.88793  -0.31008
C          C       0.56618   0.87305   0.92417   0.64941
C          C       0.62915   0.79934   0.81708  -0.40500
C          C       0.42245   0.73050   0.70361  -0.43389
C          C       0.06159   0.77021   0.81588  -0.42620
C          C       0.10897   0.01764   0.55425   0.26090
C          C       0.12434   0.10932   0.52371   0.07399
C          C       0.07167   0.21449   0.54436   0.11624
C          C       0.89359   0.19957   0.55532   0.08308
C          C       0.87770   0.10236   0.58402   0.06683
C          C       0.70496   0.07364   0.59437   0.01268
O          O       0.98853   0.71533   0.06493  -0.69299
O          O       0.18695   0.59168   0.05841  -0.55418
O          O       0.70644   0.45501   0.41241  -0.30485
O          O       0.44300   0.49166   0.43445  -0.32613
O          O       0.78653   0.38689   0.49172  -0.57098
O          O       0.59615   0.19496   0.48303  -0.59539
O          O       0.32676   0.20166   0.43040  -0.49072
O          O       0.11180   0.45035   0.44168  -0.52497
O          O       0.50792   0.28538   0.56582  -0.69548
O          O       0.31542   0.41259   0.55732  -0.55773
O          O       0.79297   0.54454   0.91305  -0.30265
O          O       0.05602   0.50808   0.93546  -0.32719
O          O       0.70995   0.61301   0.99183  -0.57305
O          O       0.89777   0.80519   0.98225  -0.59786
O          O       0.16815   0.79862   0.92956  -0.48786
O          O       0.38800   0.54983   0.94140  -0.52396
O          O       0.00738   0.21303   0.43607  -0.69411
O          O       0.80878   0.08931   0.44260  -0.55477
O          O       0.29300   0.95791   0.08692  -0.30339
O          O       0.55601   0.99444   0.06454  -0.32828
O          O       0.20991   0.88961   0.00814  -0.57333
O          O       0.39762   0.69731   0.01776  -0.59692
O          O       0.66742   0.70398   0.07047  -0.49040
O          O       0.88804   0.95283   0.05862  -0.52334
O          O       0.49136   0.78696   0.93510  -0.69347
O          O       0.68914   0.91134   0.94144  -0.55257
O          O       0.20621   0.04267   0.58768  -0.30479
O          O       0.94269   0.00592   0.56556  -0.32662
O          O       0.28646   0.11119   0.50897  -0.57342
O          O       0.09599   0.30583   0.51904  -0.59708
O          O       0.83139   0.29620   0.57304  -0.49200
O          O       0.61175   0.04727   0.55894  -0.52263

