data_crystal

_audit_creation_method 'AiiDA-DDEC plugin'

_cell_length_a        15.39771
_cell_length_b        18.08673
_cell_length_c        18.09106

_cell_angle_alpha     79.29428
_cell_angle_beta     64.44279
_cell_angle_gamma     64.49141

_symmetry_space_group_name_Hall 'P 1'
_symmetry_space_group_name_H-M  'P 1'

loop_
_symmetry_equiv_pos_as_xyz
 'x,y,z'

loop_
_atom_site_label
_atom_site_type_symbol
_atom_site_fract_x
_atom_site_fract_y
_atom_site_fract_z
_atom_site_charge
Si         Si      0.45174   0.12549   0.43703   0.90516
Si         Si      0.01388   0.37430   0.06236   0.90488
Si         Si      0.92247   0.12529   0.06314   0.90589
Si         Si      0.11170   0.37427   0.43732   0.90590
Si         Si      0.54771   0.87463   0.56327   0.90426
Si         Si      0.98600   0.62563   0.93743   0.90298
Si         Si      0.07714   0.87465   0.93710   0.90557
Si         Si      0.88812   0.62583   0.56240   0.90641
Si         Si      0.57739   0.43702   0.37467   0.90481
Si         Si      0.38827   0.06278   0.12566   0.90343
Si         Si      0.04825   0.06301   0.37449   0.90437
Si         Si      0.48607   0.43770   0.12575   0.90629
Si         Si      0.42295   0.56269   0.62549   0.90587
Si         Si      0.61192   0.93743   0.87418   0.90287
Si         Si      0.95225   0.93676   0.62539   0.90484
Si         Si      0.51409   0.56259   0.87437   0.90596
Ni         Ni      0.12445   0.25020   0.75009   0.16544
Ni         Ni      0.87454   0.74993   0.24994   0.16449
Ni         Ni      0.37523   0.74997   0.25000   0.16425
Ni         Ni      0.62554   0.25002   0.75007   0.16421
H          H       0.27079   0.15575   0.59686   0.07427
H          H       0.51273   0.25086   0.47629   0.09176
H          H       0.42593   0.34169   0.59904   0.10820
H          H       0.27058   0.32997   0.71671   0.06573
H          H       0.36391   0.08279   0.37424   0.16424
H          H       0.28596   0.10525   0.47943   0.17134
H          H       0.28994   0.18611   0.40837   0.16355
H          H       0.56434   0.12770   0.28850   0.16884
H          H       0.48802   0.22854   0.32865   0.16761
H          H       0.60227   0.16644   0.34732   0.16834
H          H       0.59863   0.01945   0.46870   0.12719
H          H       0.56648   0.97858   0.40810   0.11877
H          H       0.02192   0.34455   0.90350   0.07337
H          H       0.24118   0.24790   0.02116   0.09131
H          H       0.36809   0.15661   0.89828   0.10864
H          H       0.31759   0.16934   0.78193   0.06605
H          H       0.81896   0.41802   0.12700   0.16526
H          H       0.86836   0.39646   0.02183   0.17053
H          H       0.88283   0.31499   0.09219   0.16401
H          H       0.98026   0.37135   0.21054   0.16821
H          H       0.04519   0.27066   0.17022   0.16782
H          H       0.11672   0.33197   0.15087   0.16796
H          H       0.08781   0.47898   0.03044   0.12620
H          H       0.95329   0.52056   0.09201   0.11836
H          H       0.07308   0.15559   0.90335   0.07383
H          H       0.73492   0.25091   0.02378   0.09166
H          H       0.73009   0.34196   0.90125   0.10821
H          H       0.89729   0.33029   0.78369   0.06513
H          H       0.05397   0.08197   0.12567   0.16647
H          H       0.10918   0.10392   0.02036   0.17181
H          H       0.02422   0.18511   0.09109   0.16468
H          H       0.80779   0.12786   0.21183   0.16842
H          H       0.78293   0.22862   0.17164   0.16796
H          H       0.73043   0.16725   0.15325   0.16808
H          H       0.88116   0.02012   0.03185   0.12565
H          H       0.95475   0.97851   0.09231   0.11800
H          H       0.13139   0.34516   0.59700   0.07384
H          H       0.01264   0.24770   0.47751   0.09207
H          H       0.97653   0.15692   0.60048   0.10946
H          H       0.01283   0.16971   0.71760   0.06445
H          H       0.26327   0.41707   0.37304   0.16593
H          H       0.23561   0.39474   0.47816   0.17194
H          H       0.30281   0.31378   0.40730   0.16401
H          H       0.14840   0.37178   0.28904   0.16819
H          H       0.18428   0.27102   0.32928   0.16775
H          H       0.05096   0.33312   0.34855   0.16798
H          H       0.93245   0.48010   0.46942   0.12597
H          H       0.02581   0.52080   0.40762   0.11855
H          H       0.72808   0.84466   0.40308   0.07390
H          H       0.48685   0.74893   0.52449   0.09073
H          H       0.57310   0.65831   0.40173   0.10858
H          H       0.72819   0.67010   0.28376   0.06537
H          H       0.63600   0.91720   0.62583   0.16479
H          H       0.71360   0.89467   0.52060   0.17078
H          H       0.70967   0.81386   0.59173   0.16366
H          H       0.43545   0.87241   0.71189   0.16884
H          H       0.51156   0.77158   0.67170   0.16761
H          H       0.39712   0.83376   0.65330   0.16836
H          H       0.40082   0.98078   0.53168   0.12704
H          H       0.43303   0.02156   0.59234   0.11841
H          H       0.97712   0.65515   0.09674   0.07348
H          H       0.75890   0.75224   0.97811   0.09065
H          H       0.63161   0.84342   0.10090   0.10830
H          H       0.68138   0.83070   0.21766   0.06550
H          H       0.18092   0.58208   0.87312   0.16509
H          H       0.13111   0.60376   0.97831   0.17056
H          H       0.11681   0.68514   0.90786   0.16342
H          H       0.02000   0.62849   0.78918   0.16804
H          H       0.95496   0.72923   0.82940   0.16742
H          H       0.88347   0.66790   0.84864   0.16758
H          H       0.91222   0.52089   0.96929   0.12616
H          H       0.04670   0.47930   0.90766   0.11803
H          H       0.92609   0.84409   0.09648   0.07478
H          H       0.26436   0.74928   0.97698   0.09141
H          H       0.26874   0.65818   0.09965   0.10866
H          H       0.10128   0.66977   0.21683   0.06561
H          H       0.94602   0.91810   0.87423   0.16612
H          H       0.89040   0.89629   0.97949   0.17175
H          H       0.97538   0.81502   0.90886   0.16474
H          H       0.19212   0.87200   0.78858   0.16843
H          H       0.21688   0.77122   0.82872   0.16856
H          H       0.26929   0.83255   0.84732   0.16837
H          H       0.11855   0.97970   0.96846   0.12598
H          H       0.04486   0.02134   0.90809   0.11776
H          H       0.86735   0.65537   0.40317   0.07420
H          H       0.98758   0.75223   0.52184   0.09176
H          H       0.02331   0.84314   0.39882   0.10919
H          H       0.98637   0.83042   0.28203   0.06575
H          H       0.73674   0.58292   0.62693   0.16597
H          H       0.76409   0.60511   0.52186   0.17173
H          H       0.69691   0.68615   0.59260   0.16425
H          H       0.85174   0.62832   0.71058   0.16831
H          H       0.81576   0.72912   0.67038   0.16763
H          H       0.94913   0.66699   0.65091   0.16847
H          H       0.06743   0.52011   0.53017   0.12653
H          H       0.97422   0.47930   0.59194   0.11836
H          H       0.42673   0.59658   0.34460   0.07325
H          H       0.76476   0.47658   0.24905   0.09003
H          H       0.76948   0.59914   0.15794   0.10909
H          H       0.60219   0.71649   0.16984   0.06599
H          H       0.44611   0.37425   0.41821   0.16513
H          H       0.39062   0.47957   0.39646   0.17073
H          H       0.47548   0.40898   0.31511   0.16402
H          H       0.69211   0.28833   0.37166   0.16774
H          H       0.71676   0.32883   0.27097   0.16691
H          H       0.76951   0.34703   0.33227   0.16781
H          H       0.61885   0.46822   0.47974   0.12641
H          H       0.54538   0.40759   0.52129   0.11828
H          H       0.36869   0.90302   0.15485   0.07437
H          H       0.48721   0.02285   0.25216   0.08983
H          H       0.52329   0.89994   0.34304   0.10796
H          H       0.48709   0.78267   0.33032   0.06602
H          H       0.23671   0.12690   0.08304   0.16527
H          H       0.26419   0.02184   0.10553   0.17080
H          H       0.19708   0.09278   0.18635   0.16373
H          H       0.35193   0.21100   0.12783   0.16857
H          H       0.31590   0.17103   0.22873   0.16698
H          H       0.44929   0.15153   0.16648   0.16764
H          H       0.56746   0.03073   0.01976   0.12572
H          H       0.47419   0.09232   0.97900   0.11803
H          H       0.22892   0.90331   0.34441   0.07360
H          H       0.98748   0.02373   0.24902   0.09004
H          H       0.07459   0.90108   0.15800   0.10994
H          H       0.22960   0.78342   0.17003   0.06588
H          H       0.13592   0.12602   0.41711   0.16663
H          H       0.21388   0.02088   0.39473   0.17055
H          H       0.21005   0.09181   0.31385   0.16399
H          H       0.93577   0.21155   0.37215   0.16744
H          H       0.01212   0.17131   0.27136   0.16695
H          H       0.89784   0.15266   0.33348   0.16704
H          H       0.90149   0.03111   0.48054   0.12518
H          H       0.93343   0.09186   0.52140   0.11811
H          H       0.47792   0.59651   0.15567   0.07410
H          H       0.25867   0.47870   0.25209   0.09115
H          H       0.13154   0.60161   0.34325   0.10836
H          H       0.18197   0.71801   0.33062   0.06537
H          H       0.68089   0.37328   0.08192   0.16576
H          H       0.63151   0.47842   0.10354   0.17181
H          H       0.61714   0.40802   0.18496   0.16467
H          H       0.51958   0.28948   0.12867   0.16847
H          H       0.45467   0.32977   0.22940   0.16756
H          H       0.38315   0.34922   0.16811   0.16855
H          H       0.41226   0.46945   0.02111   0.12615
H          H       0.54682   0.40802   0.97944   0.11744
H          H       0.57387   0.40346   0.65599   0.07294
H          H       0.23564   0.52267   0.75101   0.09026
H          H       0.23129   0.40009   0.84222   0.10928
H          H       0.39880   0.28302   0.83043   0.06613
H          H       0.55402   0.62568   0.58184   0.16517
H          H       0.60982   0.52038   0.60345   0.17055
H          H       0.52491   0.59085   0.68488   0.16403
H          H       0.30773   0.71135   0.62860   0.16785
H          H       0.28346   0.67073   0.72921   0.16706
H          H       0.23079   0.65233   0.66800   0.16818
H          H       0.38140   0.53121   0.52059   0.12626
H          H       0.45478   0.59189   0.47887   0.11810
H          H       0.63291   0.09668   0.84465   0.07391
H          H       0.51228   0.97809   0.74797   0.09068
H          H       0.47660   0.10123   0.65716   0.10922
H          H       0.51375   0.21800   0.66978   0.06531
H          H       0.76331   0.87292   0.91702   0.16541
H          H       0.73611   0.97796   0.89468   0.17069
H          H       0.80324   0.90710   0.81374   0.16324
H          H       0.64794   0.78931   0.87196   0.16859
H          H       0.68413   0.82931   0.77109   0.16708
H          H       0.55067   0.84890   0.83324   0.16771
H          H       0.43262   0.96964   0.97997   0.12621
H          H       0.52577   0.90805   0.02083   0.11842
H          H       0.77231   0.09703   0.65512   0.07455
H          H       0.01307   0.97547   0.75109   0.09064
H          H       0.92661   0.09798   0.84201   0.10908
H          H       0.77187   0.21607   0.83005   0.06519
H          H       0.86393   0.87413   0.58293   0.16648
H          H       0.78633   0.97936   0.60549   0.17044
H          H       0.79028   0.90827   0.68630   0.16379
H          H       0.06447   0.78809   0.62767   0.16816
H          H       0.98821   0.82837   0.72847   0.16747
H          H       0.10267   0.84680   0.66632   0.16749
H          H       0.09911   0.96850   0.51921   0.12560
H          H       0.06712   0.90768   0.47847   0.11833
H          H       0.52270   0.40332   0.84496   0.07440
H          H       0.74115   0.52203   0.74781   0.09196
H          H       0.86853   0.39905   0.65681   0.10856
H          H       0.81861   0.28229   0.66948   0.06531
H          H       0.31911   0.62680   0.91816   0.16594
H          H       0.36898   0.52161   0.89637   0.17159
H          H       0.38316   0.59217   0.81505   0.16440
H          H       0.48006   0.71086   0.87147   0.16854
H          H       0.54520   0.67052   0.77075   0.16733
H          H       0.61662   0.65145   0.83205   0.16860
H          H       0.58760   0.53101   0.97919   0.12586
H          H       0.45301   0.59244   0.02073   0.11811
C          C       0.31014   0.19422   0.59468   0.07451
C          C       0.39921   0.19395   0.52592  -0.31009
C          C       0.44327   0.24799   0.52777  -0.06582
C          C       0.39580   0.29829   0.59587  -0.12730
C          C       0.30850   0.29262   0.66235   0.02668
C          C       0.33796   0.12476   0.42327  -0.73741
C          C       0.53426   0.16564   0.34198  -0.73950
C          C       0.53185   0.01827   0.46143  -0.45787
C          C       0.09827   0.30576   0.90498   0.07364
C          C       0.11892   0.30568   0.97302  -0.30844
C          C       0.21971   0.25104   0.97034  -0.06693
C          C       0.29080   0.20057   0.90214  -0.12702
C          C       0.26368   0.20665   0.83643   0.02437
C          C       0.88433   0.37623   0.07745  -0.73806
C          C       0.04194   0.33338   0.15680  -0.73895
C          C       0.01177   0.48113   0.03826  -0.45694
C          C       0.99485   0.19421   0.90556   0.07595
C          C       0.90599   0.19393   0.97427  -0.30997
C          C       0.80735   0.24807   0.97239  -0.06618
C          C       0.80409   0.29849   0.90437  -0.12760
C          C       0.89719   0.29290   0.83800   0.02755
C          C       0.03755   0.12384   0.07656  -0.74203
C          C       0.79966   0.16589   0.15834  -0.73914
C          C       0.94951   0.01832   0.03900  -0.45556
C          C       0.09465   0.30622   0.59515   0.07475
C          C       0.07513   0.30587   0.52662  -0.30954
C          C       0.02998   0.25113   0.52879  -0.06715
C          C       0.00926   0.20083   0.59700  -0.13019
C          C       0.02941   0.20702   0.66316   0.02931
C          C       0.23981   0.37518   0.42232  -0.74140
C          C       0.12458   0.33392   0.34273  -0.73944
C          C       0.00678   0.48150   0.46142  -0.45589
C          C       0.68878   0.80609   0.40541   0.07430
C          C       0.60004   0.80615   0.47443  -0.30856
C          C       0.55599   0.75204   0.47277  -0.06496
C          C       0.60323   0.70178   0.40470  -0.12856
C          C       0.69049   0.70740   0.33811   0.02757
C          C       0.66165   0.87524   0.57688  -0.73733
C          C       0.46528   0.83450   0.65844  -0.73933
C          C       0.46761   0.98194   0.53896  -0.45736
C          C       0.90092   0.69405   0.09501   0.07462
C          C       0.88068   0.69424   0.02672  -0.30861
C          C       0.78004   0.74896   0.02915  -0.06481
C          C       0.70879   0.79945   0.09729  -0.12788
C          C       0.73553   0.79331   0.16325   0.02499
C          C       0.11537   0.62389   0.92258  -0.73693
C          C       0.95819   0.66651   0.84285  -0.73778
C          C       0.98827   0.51872   0.96144  -0.45577
C          C       0.00428   0.80568   0.09452   0.07146
C          C       0.09327   0.80604   0.02603  -0.30709
C          C       0.19181   0.75207   0.02822  -0.06758
C          C       0.19485   0.70165   0.09630  -0.12740
C          C       0.10163   0.70714   0.16244   0.02794
C          C       0.96218   0.87624   0.92342  -0.74163
C          C       0.20013   0.83394   0.84207  -0.74006
C          C       0.05013   0.98155   0.96139  -0.45611
C          C       0.90442   0.69413   0.40482   0.07290
C          C       0.92443   0.69432   0.47313  -0.30898
C          C       0.96989   0.74891   0.47073  -0.06657
C          C       0.99041   0.79926   0.40250  -0.12945
C          C       0.96990   0.79314   0.33653   0.02610
C          C       0.76002   0.62480   0.57757  -0.74139
C          C       0.87543   0.66620   0.65688  -0.74017
C          C       0.99315   0.51863   0.53816  -0.45716
C          C       0.50483   0.59462   0.30596   0.07543
C          C       0.59369   0.52597   0.30613  -0.31016
C          C       0.69234   0.52790   0.25196  -0.06349
C          C       0.69554   0.59592   0.20153  -0.12826
C          C       0.60242   0.66220   0.20720   0.02485
C          C       0.46229   0.42347   0.37635  -0.73815
C          C       0.70023   0.34190   0.33373  -0.73717
C          C       0.55047   0.46104   0.48164  -0.45644
C          C       0.40525   0.90500   0.19385   0.07358
C          C       0.42473   0.97360   0.19416  -0.31055
C          C       0.46989   0.97152   0.24884  -0.06406
C          C       0.49053   0.90335   0.29919  -0.12538
C          C       0.47042   0.83711   0.29305   0.02152
C          C       0.26012   0.07768   0.12495  -0.73874
C          C       0.37559   0.15741   0.16580  -0.73759
C          C       0.49319   0.03861   0.01836  -0.45488
C          C       0.18972   0.90538   0.30590   0.07525
C          C       0.10080   0.97413   0.30604  -0.30770
C          C       0.05686   0.97230   0.25195  -0.06567
C          C       0.10443   0.90422   0.20160  -0.12968
C          C       0.19165   0.83781   0.20731   0.02604
C          C       0.16190   0.07694   0.37518  -0.74029
C          C       0.96584   0.15800   0.33430  -0.73572
C          C       0.96818   0.03851   0.48173  -0.45496
C          C       0.40155   0.59501   0.19442   0.07545
C          C       0.38093   0.52695   0.19443  -0.31101
C          C       0.28007   0.52959   0.24893  -0.06634
C          C       0.20891   0.59777   0.29941  -0.12709
C          C       0.23601   0.66352   0.29337   0.02711
C          C       0.61554   0.42277   0.12377  -0.74140
C          C       0.45797   0.34321   0.16667  -0.73981
C          C       0.48828   0.46176   0.01889  -0.45540
C          C       0.49576   0.40529   0.69451   0.07756
C          C       0.40680   0.47372   0.69414  -0.31232
C          C       0.30821   0.47157   0.74824  -0.06318
C          C       0.30518   0.40349   0.79868  -0.12952
C          C       0.39839   0.33738   0.79309   0.02587
C          C       0.53803   0.57639   0.62366  -0.73790
C          C       0.29997   0.65767   0.66646  -0.73814
C          C       0.44975   0.53850   0.51862  -0.45700
C          C       0.59586   0.09501   0.80588   0.07590
C          C       0.57573   0.02672   0.80571  -0.30978
C          C       0.53015   0.02919   0.75120  -0.06583
C          C       0.50963   0.09747   0.70093  -0.12829
C          C       0.53024   0.16344   0.70700   0.02496
C          C       0.74009   0.92222   0.87511  -0.73784
C          C       0.62438   0.84293   0.83399  -0.73742
C          C       0.50688   0.96173   0.98141  -0.45598
C          C       0.81139   0.09466   0.69384   0.07307
C          C       0.90002   0.02563   0.69381  -0.30986
C          C       0.94387   0.02711   0.74810  -0.06470
C          C       0.89661   0.09513   0.79841  -0.12774
C          C       0.80960   0.16182   0.79264   0.02603
C          C       0.83828   0.92311   0.62487  -0.73962
C          C       0.03457   0.84161   0.66552  -0.73761
C          C       0.03240   0.96109   0.51807  -0.45537
C          C       0.59894   0.40506   0.80597   0.07362
C          C       0.61931   0.47333   0.80574  -0.31002
C          C       0.71999   0.47095   0.75103  -0.06696
C          C       0.79124   0.40275   0.70063  -0.12790
C          C       0.76445   0.33676   0.70680   0.02643
C          C       0.38465   0.57740   0.87627  -0.74134
C          C       0.54192   0.65719   0.83347  -0.73999
C          C       0.51163   0.53870   0.98131  -0.45589
N          N       0.26436   0.24117   0.66238  -0.19808
N          N       0.16736   0.25866   0.83715  -0.19642
N          N       0.99335   0.24129   0.83791  -0.19835
N          N       0.07275   0.25914   0.66292  -0.19911
N          N       0.73450   0.75907   0.33778  -0.19785
N          N       0.83167   0.74115   0.16281  -0.19758
N          N       0.00559   0.75865   0.16225  -0.19669
N          N       0.92627   0.74116   0.33699  -0.19727
N          N       0.50625   0.66229   0.25892  -0.19648
N          N       0.42717   0.83724   0.24091  -0.19624
N          N       0.23558   0.83768   0.25892  -0.19661
N          N       0.33238   0.66286   0.24144  -0.19842
N          N       0.49447   0.33761   0.74158  -0.19623
N          N       0.57402   0.16286   0.75889  -0.19777
N          N       0.76568   0.16226   0.74089  -0.19648
N          N       0.66820   0.33724   0.75890  -0.19697

