data_crystal

_audit_creation_method 'AiiDA-DDEC plugin'

_cell_length_a        15.67031
_cell_length_b        15.67038
_cell_length_c        17.10315

_cell_angle_alpha     89.98848
_cell_angle_beta     89.99151
_cell_angle_gamma     120.31750

_symmetry_space_group_name_Hall 'P 1'
_symmetry_space_group_name_H-M  'P 1'

loop_
_symmetry_equiv_pos_as_xyz
 'x,y,z'

loop_
_atom_site_label
_atom_site_type_symbol
_atom_site_fract_x
_atom_site_fract_y
_atom_site_fract_z
_atom_site_charge
Cu         Cu      0.83766   0.64871   0.78421   0.80477
Cu         Cu      0.15818   0.84368   0.44996   0.80357
Cu         Cu      0.47879   0.98228   0.78812   0.80583
Cu         Cu      0.81115   0.16215   0.45086   0.80451
Cu         Cu      0.68600   0.84218   0.11663   0.80356
Cu         Cu      0.50357   0.52103   0.45479   0.80492
Cu         Cu      0.35139   0.18903   0.11751   0.80443
Cu         Cu      0.15617   0.31411   0.78333   0.80392
Cu         Cu      0.01771   0.49655   0.12142   0.80510
H          H       0.63177   0.53628   0.73727   0.10176
H          H       0.46840   0.51481   0.77993   0.12330
H          H       0.46630   0.61501   0.89362   0.13180
H          H       0.78288   0.74317   0.91081   0.11261
H          H       0.93668   0.54139   0.83737   0.10419
H          H       0.08161   0.52407   0.79641   0.12956
H          H       0.17772   0.61662   0.67719   0.13603
H          H       0.98257   0.73392   0.65487   0.10613
H          H       0.30581   0.90426   0.57686   0.10755
H          H       0.47746   0.22271   0.56965   0.13000
H          H       0.37333   0.21742   0.45616   0.11962
H          H       0.23919   0.05119   0.40838   0.10605
H          H       0.42296   0.07262   0.91693   0.10741
H          H       0.11033   0.96054   0.89083   0.13750
H          H       0.11235   0.86427   0.77416   0.13039
H          H       0.27403   0.87848   0.73566   0.09960
H          H       0.69352   0.20547   0.02022   0.13644
H          H       0.79244   0.20421   0.13528   0.13297
H          H       0.78573   0.04496   0.16949   0.10011
H          H       0.59257   0.89566   0.98767   0.10987
H          H       0.56395   0.86123   0.83283   0.10728
H          H       0.70018   0.83306   0.78674   0.12113
H          H       0.80463   0.93354   0.67277   0.12952
H          H       0.62892   0.07408   0.66293   0.11186
H          H       0.90419   0.36760   0.40400   0.10203
H          H       0.04684   0.53169   0.44708   0.12367
H          H       0.14947   0.53424   0.56071   0.13168
H          H       0.96005   0.21727   0.57697   0.11275
H          H       0.60488   0.06298   0.50351   0.10418
H          H       0.44137   0.91733   0.46262   0.12932
H          H       0.43773   0.82146   0.34383   0.13563
H          H       0.75227   0.01810   0.32185   0.10584
H          H       0.59868   0.69361   0.24395   0.10726
H          H       0.74482   0.52331   0.23623   0.12943
H          H       0.84412   0.62769   0.12225   0.11957
H          H       0.81265   0.76119   0.07455   0.10658
H          H       0.64939   0.57707   0.58313   0.10634
H          H       0.85105   0.89033   0.55792   0.13706
H          H       0.75243   0.88788   0.44133   0.13121
H          H       0.60414   0.72537   0.40246   0.09987
H          H       0.51200   0.30701   0.68645   0.13643
H          H       0.41121   0.20781   0.80187   0.13222
H          H       0.25852   0.21403   0.83654   0.10118
H          H       0.30349   0.40695   0.65457   0.11002
H          H       0.29755   0.43567   0.49899   0.10673
H          H       0.13187   0.29880   0.45284   0.12138
H          H       0.12768   0.19459   0.33938   0.13015
H          H       0.44599   0.37171   0.32999   0.11214
H          H       0.46402   0.09619   0.07015   0.10248
H          H       0.48485   0.95421   0.11324   0.12341
H          H       0.38437   0.85135   0.22738   0.13092
H          H       0.25743   0.03928   0.24398   0.11233
H          H       0.45841   0.39573   0.17032   0.10344
H          H       0.47625   0.55846   0.12978   0.12975
H          H       0.38388   0.56166   0.01092   0.13690
H          H       0.26556   0.24769   0.98806   0.10664
H          H       0.09602   0.40200   0.91065   0.10831
H          H       0.77770   0.25452   0.90250   0.13028
H          H       0.78250   0.15547   0.78901   0.11911
H          H       0.94815   0.18765   0.74167   0.10606
H          H       0.92791   0.34990   0.25008   0.10672
H          H       0.03895   0.14980   0.22458   0.13693
H          H       0.13545   0.24868   0.10755   0.13110
H          H       0.12176   0.39624   0.06859   0.10071
H          H       0.79385   0.48715   0.35318   0.13629
H          H       0.79551   0.58767   0.46813   0.13245
H          H       0.95566   0.74109   0.50266   0.10048
H          H       0.10439   0.69727   0.32147   0.10836
H          H       0.13849   0.70312   0.16572   0.10643
H          H       0.16736   0.86817   0.12000   0.12085
H          H       0.06712   0.87184   0.00651   0.13007
H          H       0.92530   0.55379   0.99619   0.11153
C          C       0.62607   0.57686   0.78651   0.08264
C          C       0.53628   0.56596   0.81038  -0.11761
C          C       0.53528   0.62172   0.87356  -0.03894
C          C       0.62437   0.68644   0.91132  -0.06984
C          C       0.71168   0.69335   0.88408   0.07655
C          C       0.98117   0.57949   0.78651   0.08524
C          C       0.06150   0.57086   0.76349  -0.11731
C          C       0.11532   0.62257   0.69750  -0.03461
C          C       0.08680   0.68180   0.65680  -0.07245
C          C       0.00604   0.68771   0.68409   0.07258
C          C       0.13924   0.73503   0.58305   0.54601
C          C       0.32315   0.97497   0.55210   0.07394
C          C       0.39871   0.06360   0.58287  -0.07142
C          C       0.41828   0.15256   0.54779  -0.03418
C          C       0.36080   0.14983   0.48447  -0.11710
C          C       0.28616   0.05867   0.45755   0.08460
C          C       0.45458   0.06344   0.65462   0.54835
C          C       0.35282   0.02713   0.88744   0.07229
C          C       0.26657   0.02393   0.91283  -0.07173
C          C       0.17852   0.96491   0.87177  -0.03832
C          C       0.17945   0.91094   0.80727  -0.11424
C          C       0.26818   0.91768   0.78568   0.08366
C          C       0.57991   0.05081   0.92316   0.54381
C          C       0.63598   0.05086   0.99464  -0.07217
C          C       0.69242   0.13812   0.03731  -0.03917
C          C       0.74759   0.13769   0.10106  -0.11625
C          C       0.74473   0.05011   0.12043   0.08466
C          C       0.63631   0.96555   0.01799   0.07594
C          C       0.61098   0.90159   0.78372   0.08425
C          C       0.68673   0.88697   0.75766  -0.11663
C          C       0.74439   0.94244   0.69456  -0.03483
C          C       0.72394   0.01060   0.65874  -0.07112
C          C       0.64680   0.02137   0.68816   0.07545
C          C       0.78078   0.06702   0.58762   0.54203
C          C       0.26724   0.07977   0.98468   0.54489
C          C       0.62447   0.74354   0.98209   0.54247
C          C       0.95082   0.37382   0.45320   0.08289
C          C       0.03000   0.46384   0.47733  -0.11743
C          C       0.08693   0.46509   0.54049  -0.03931
C          C       0.06249   0.37609   0.57811  -0.06807
C          C       0.98183   0.28859   0.55062   0.07474
C          C       0.59808   0.01833   0.45283   0.08399
C          C       0.50862   0.93774   0.42980  -0.11631
C          C       0.50660   0.88406   0.36396  -0.03467
C          C       0.59485   0.91291   0.32336  -0.07318
C          C       0.68198   0.99394   0.35069   0.07318
C          C       0.59542   0.86044   0.24969   0.54800
C          C       0.65213   0.67694   0.21875   0.07434
C          C       0.66495   0.60157   0.24939  -0.06961
C          C       0.73424   0.58232   0.21418  -0.03414
C          C       0.78908   0.63992   0.15071  -0.11711
C          C       0.77285   0.71436   0.12388   0.08447
C          C       0.60874   0.54575   0.32122   0.54564
C          C       0.67449   0.64740   0.55402   0.07305
C          C       0.75785   0.73386   0.57966  -0.07249
C          C       0.78696   0.82191   0.53874  -0.03750
C          C       0.73187   0.82075   0.47426  -0.11515
C          C       0.64954   0.73175   0.45244   0.08397
C          C       0.47112   0.42014   0.58973   0.54372
C          C       0.41503   0.36392   0.66128  -0.07222
C          C       0.44564   0.30772   0.70387  -0.03897
C          C       0.38972   0.25252   0.76775  -0.11601
C          C       0.30489   0.25507   0.78736   0.08443
C          C       0.32935   0.36332   0.68486   0.07526
C          C       0.29041   0.38848   0.45004   0.08428
C          C       0.19955   0.31254   0.42391  -0.11613
C          C       0.19737   0.25500   0.36098  -0.03767
C          C       0.28639   0.27577   0.32527  -0.06593
C          C       0.37479   0.35311   0.35479   0.07255
C          C       0.28572   0.21890   0.25428   0.54140
C          C       0.81310   0.73338   0.65159   0.54666
C          C       0.11957   0.37616   0.64889   0.54295
C          C       0.42336   0.04973   0.11953   0.08427
C          C       0.43388   0.97075   0.14362  -0.11900
C          C       0.37812   0.91370   0.20696  -0.03735
C          C       0.31367   0.93783   0.24466  -0.06924
C          C       0.30711   0.01826   0.21723   0.07543
C          C       0.42038   0.40200   0.11959   0.08465
C          C       0.42931   0.49121   0.09679  -0.11632
C          C       0.37759   0.49301   0.03095  -0.03606
C          C       0.31814   0.40474   0.99023  -0.07201
C          C       0.31195   0.31780   0.01729   0.07151
C          C       0.26498   0.40399   0.91668   0.54749
C          C       0.02536   0.34835   0.88555   0.07299
C          C       0.93683   0.33517   0.91606  -0.06901
C          C       0.84773   0.26558   0.88082  -0.03502
C          C       0.85016   0.21071   0.81751  -0.11675
C          C       0.94117   0.22735   0.79085   0.08324
C          C       0.93737   0.39136   0.98777   0.54463
C          C       0.97325   0.32553   0.22061   0.07250
C          C       0.97617   0.24245   0.24624  -0.07193
C          C       0.03495   0.21369   0.20522  -0.03746
C          C       0.08893   0.26892   0.14058  -0.11549
C          C       0.08251   0.35099   0.11875   0.08396
C          C       0.94858   0.52858   0.25639   0.54326
C          C       0.94872   0.58467   0.32787  -0.07176
C          C       0.86143   0.55371   0.37040  -0.03943
C          C       0.86208   0.60948   0.43410  -0.11475
C          C       0.94996   0.69458   0.45367   0.08375
C          C       0.03428   0.67064   0.35142   0.07756
C          C       0.09823   0.70973   0.11676   0.08365
C          C       0.11326   0.80043   0.09089  -0.11600
C          C       0.05779   0.80232   0.02796  -0.03584
C          C       0.98934   0.71315   0.99211  -0.07022
C          C       0.97819   0.62489   0.02136   0.07529
C          C       0.93305   0.71367   0.92116   0.54266
C          C       0.92020   0.18715   0.31822   0.54489
C          C       0.25644   0.88074   0.31554   0.54321
N          N       0.71217   0.63989   0.82244  -0.23664
N          N       0.68971   0.96557   0.07975  -0.23904
N          N       0.26845   0.97277   0.49044  -0.24086
N          N       0.35341   0.97501   0.82498  -0.24183
N          N       0.59179   0.96798   0.74955  -0.23934
N          N       0.95396   0.63734   0.74762  -0.24543
N          N       0.92783   0.28789   0.48897  -0.23678
N          N       0.27563   0.30990   0.74669  -0.23948
N          N       0.70479   0.73193   0.15700  -0.24100
N          N       0.62169   0.64662   0.49159  -0.24186
N          N       0.37629   0.40780   0.41611  -0.23871
N          N       0.68351   0.04577   0.41411  -0.24462
N          N       0.36059   0.07255   0.15550  -0.23682
N          N       0.03443   0.72408   0.41314  -0.24010
N          N       0.02731   0.29570   0.82388  -0.23954
N          N       0.02537   0.37860   0.15807  -0.24178
N          N       0.03154   0.62363   0.08269  -0.23802
N          N       0.36234   0.31645   0.08074  -0.24465
O          O       0.71081   0.80966   0.00806  -0.56403
O          O       0.54410   0.72476   0.01245  -0.54781
O          O       0.18748   0.05883   0.01672  -0.53750
O          O       0.35495   0.14708   0.00825  -0.57781
O          O       0.11655   0.80020   0.55938  -0.57737
O          O       0.19742   0.71441   0.54979  -0.53613
O          O       0.51412   0.14249   0.68684  -0.53651
O          O       0.43269   0.97550   0.67856  -0.57799
O          O       0.51451   0.96429   0.89685  -0.57032
O          O       0.59962   0.13127   0.89261  -0.54303
O          O       0.75739   0.12974   0.55988  -0.56374
O          O       0.84387   0.05000   0.55824  -0.54277
O          O       0.09899   0.28982   0.67472  -0.56524
O          O       0.18154   0.45662   0.67928  -0.54740
O          O       0.87205   0.81304   0.68380  -0.53718
O          O       0.79241   0.64564   0.67493  -0.57907
O          O       0.68374   0.88338   0.22609  -0.57916
O          O       0.51627   0.80223   0.21658  -0.53550
O          O       0.62804   0.48622   0.35357  -0.53773
O          O       0.54286   0.56731   0.34526  -0.57585
O          O       0.44982   0.48500   0.56351  -0.56958
O          O       0.53220   0.40118   0.55910  -0.54262
O          O       0.37219   0.24257   0.22654  -0.56459
O          O       0.20501   0.15564   0.22512  -0.54276
O          O       0.19074   0.90103   0.34137  -0.56439
O          O       0.27458   0.81896   0.34609  -0.54806
O          O       0.94058   0.12824   0.35057  -0.53782
O          O       0.85326   0.20752   0.34159  -0.57768
O          O       0.19940   0.31578   0.89274  -0.57918
O          O       0.28604   0.48332   0.88390  -0.53594
O          O       0.85820   0.37149   0.02009  -0.53768
O          O       0.02525   0.45779   0.01184  -0.57493
O          O       0.03507   0.55011   0.23018  -0.57008
O          O       0.86802   0.46750   0.22585  -0.54220
O          O       0.86994   0.62726   0.89319  -0.56461
O          O       0.95069   0.79431   0.89214  -0.54308

