data_crystal

_audit_creation_method 'AiiDA-DDEC plugin'

_cell_length_a        15.59207
_cell_length_b        15.63291
_cell_length_c        32.89351

_cell_angle_alpha     89.98278
_cell_angle_beta     89.90008
_cell_angle_gamma     90.06944

_symmetry_space_group_name_Hall 'P 1'
_symmetry_space_group_name_H-M  'P 1'

loop_
_symmetry_equiv_pos_as_xyz
 'x,y,z'

loop_
_atom_site_label
_atom_site_type_symbol
_atom_site_fract_x
_atom_site_fract_y
_atom_site_fract_z
_atom_site_charge
Cd         Cd      0.27426   0.72982   0.08022   1.02474
Cd         Cd      0.72731   0.27137   0.58072   1.02756
Cd         Cd      0.77343   0.77362   0.83018   1.02487
Cd         Cd      0.22807   0.22758   0.33027   1.02635
Cd         Cd      0.22791   0.22842   0.66958   1.02457
Cd         Cd      0.77557   0.77263   0.16968   1.02504
Cd         Cd      0.73045   0.27364   0.92015   1.02364
Cd         Cd      0.27125   0.72778   0.42007   1.02415
H          H       0.06916   0.40773   0.21106   0.13395
H          H       0.33610   0.42216   0.24032   0.13521
H          H       0.35967   0.52833   0.18371   0.13914
H          H       0.90843   0.43620   0.02542   0.13001
H          H       0.65529   0.51976   0.99529   0.13109
H          H       0.65714   0.62364   0.05387   0.13506
H          H       0.14811   0.50716   0.08916   0.13287
H          H       0.02437   0.52143   0.04388   0.12151
H          H       0.85592   0.54274   0.14856   0.13584
H          H       0.97800   0.52099   0.19362   0.12402
H          H       0.93107   0.59122   0.71207   0.13434
H          H       0.66385   0.57758   0.74125   0.13533
H          H       0.64050   0.47159   0.68455   0.13918
H          H       0.09093   0.56279   0.52526   0.13034
H          H       0.34409   0.47961   0.49422   0.13098
H          H       0.34331   0.37693   0.55335   0.13459
H          H       0.85269   0.49241   0.59031   0.13485
H          H       0.97578   0.47857   0.54483   0.12425
H          H       0.14499   0.45669   0.64906   0.13458
H          H       0.02302   0.47823   0.69441   0.12201
H          H       0.09311   0.56947   0.96164   0.13283
H          H       0.07726   0.83541   0.99163   0.13534
H          H       0.97168   0.85873   0.93468   0.13936
H          H       0.06609   0.40946   0.77505   0.12919
H          H       0.97966   0.15846   0.74390   0.13074
H          H       0.87706   0.15915   0.80329   0.13573
H          H       0.99546   0.64805   0.83997   0.13279
H          H       0.98174   0.52494   0.79438   0.12212
H          H       0.95950   0.35606   0.89863   0.13338
H          H       0.97961   0.47789   0.94404   0.12353
H          H       0.91174   0.43119   0.46407   0.12836
H          H       0.92637   0.16451   0.49238   0.13523
H          H       0.02797   0.14143   0.43366   0.13951
H          H       0.93682   0.59183   0.27534   0.12952
H          H       0.02368   0.84347   0.24450   0.13006
H          H       0.12455   0.84264   0.30424   0.13597
H          H       0.00432   0.35363   0.34024   0.13349
H          H       0.01881   0.47685   0.29491   0.12207
H          H       0.04122   0.64487   0.39949   0.13476
H          H       0.02019   0.52303   0.44460   0.12784
H          H       0.42996   0.90887   0.53768   0.12972
H          H       0.16271   0.92398   0.50913   0.13555
H          H       0.14013   0.02883   0.56644   0.13923
H          H       0.59131   0.93544   0.72395   0.12924
H          H       0.84371   0.02005   0.75505   0.13086
H          H       0.84368   0.12197   0.69564   0.13518
H          H       0.35255   0.00560   0.66010   0.13316
H          H       0.47639   0.01903   0.70526   0.12548
H          H       0.64463   0.04116   0.60043   0.13462
H          H       0.52213   0.02095   0.55547   0.12354
H          H       0.57069   0.08958   0.03679   0.13320
H          H       0.83779   0.07376   0.00780   0.13543
H          H       0.86050   0.97013   0.06569   0.13957
H          H       0.40930   0.06569   0.22418   0.12959
H          H       0.15705   0.97988   0.25544   0.13094
H          H       0.15871   0.87654   0.19662   0.13457
H          H       0.64856   0.99422   0.15956   0.13408
H          H       0.52528   0.98121   0.20515   0.12219
H          H       0.35584   0.95952   0.10103   0.13404
H          H       0.47812   0.97932   0.05550   0.12708
H          H       0.41008   0.06997   0.78829   0.13006
H          H       0.42372   0.33661   0.75954   0.13513
H          H       0.52839   0.36007   0.81683   0.13963
H          H       0.43602   0.90844   0.97433   0.12983
H          H       0.52011   0.65605   0.00449   0.13078
H          H       0.62496   0.65854   0.94611   0.13487
H          H       0.50731   0.14795   0.91071   0.13381
H          H       0.52144   0.02449   0.95593   0.12092
H          H       0.54336   0.85679   0.85126   0.13481
H          H       0.52154   0.97880   0.80619   0.12377
H          H       0.58912   0.93197   0.28736   0.13129
H          H       0.57654   0.66582   0.25782   0.13577
H          H       0.47159   0.64101   0.31506   0.13878
H          H       0.56333   0.08877   0.47359   0.12847
H          H       0.48029   0.34021   0.50617   0.13069
H          H       0.37670   0.34112   0.44746   0.13488
H          H       0.49156   0.85199   0.40951   0.13280
H          H       0.47769   0.97497   0.45506   0.12402
H          H       0.45616   0.14400   0.35081   0.13435
H          H       0.47716   0.02236   0.30542   0.12358
C          C       0.24122   0.59663   0.13474   0.52101
C          C       0.18670   0.34979   0.26379   0.53441
C          C       0.22766   0.52712   0.16512  -0.00496
C          C       0.14356   0.49265   0.17214   0.06272
C          C       0.13150   0.43693   0.20549  -0.14648
C          C       0.20028   0.41220   0.22960  -0.00375
C          C       0.28340   0.44395   0.22129  -0.04078
C          C       0.29637   0.50180   0.18971  -0.10688
C          C       0.78528   0.65197   0.10656   0.52732
C          C       0.77895   0.40492   0.97499   0.53217
C          C       0.78368   0.58749   0.07316   0.00175
C          C       0.85707   0.53451   0.06536   0.06411
C          C       0.85536   0.47966   0.03129  -0.14793
C          C       0.78289   0.47331   0.00703   0.00386
C          C       0.71115   0.52614   0.01489  -0.04519
C          C       0.71202   0.58278   0.04751  -0.11064
C          C       0.07205   0.50966   0.14500   0.11372
C          C       0.08412   0.51303   0.10215  -0.09456
C          C       0.01444   0.52054   0.07662  -0.10568
C          C       0.93040   0.53087   0.09257   0.11064
C          C       0.91924   0.53322   0.13542  -0.09011
C          C       0.98816   0.51996   0.16091  -0.10047
C          C       0.75893   0.40318   0.63568   0.52266
C          C       0.81316   0.65195   0.76366   0.52997
C          C       0.77269   0.47233   0.66614  -0.00342
C          C       0.85699   0.50619   0.67325   0.06380
C          C       0.86879   0.56203   0.70650  -0.14937
C          C       0.79976   0.58757   0.73038  -0.00070
C          C       0.71669   0.55570   0.72226  -0.04012
C          C       0.70383   0.49783   0.69071  -0.10697
C          C       0.21637   0.34825   0.60609   0.52120
C          C       0.21922   0.59349   0.47407   0.53391
C          C       0.21709   0.41313   0.57296   0.00518
C          C       0.14333   0.46581   0.56556   0.06453
C          C       0.14432   0.51985   0.53121  -0.14735
C          C       0.21631   0.52580   0.50645   0.00650
C          C       0.28854   0.47350   0.51411  -0.04440
C          C       0.28835   0.41762   0.54697  -0.11199
C          C       0.92872   0.48953   0.64604   0.11390
C          C       0.91665   0.48670   0.60322  -0.09337
C          C       0.98624   0.47961   0.57750  -0.10583
C          C       0.07038   0.46929   0.59317   0.11027
C          C       0.08166   0.46644   0.63604  -0.09138
C          C       0.01276   0.47932   0.66172  -0.10160
C          C       0.90494   0.74100   0.88516   0.52034
C          C       0.15208   0.68689   0.01398   0.53188
C          C       0.97352   0.72724   0.91595  -0.00411
C          C       0.00782   0.64339   0.92294   0.06110
C          C       0.06354   0.63147   0.95622  -0.14831
C          C       0.08829   0.70009   0.98041  -0.00021
C          C       0.05596   0.78283   0.97244  -0.04300
C          C      -0.00168   0.79572   0.94078  -0.10371
C          C       0.85036   0.28556   0.85675   0.52311
C          C       0.09512   0.28174   0.72366   0.53325
C          C       0.91431   0.28487   0.82295   0.00326
C          C       0.96780   0.35803   0.81533   0.06385
C          C       0.02210   0.35678   0.78096  -0.14820
C          C       0.02718   0.28522   0.75612   0.00382
C          C       0.97394   0.21368   0.76387  -0.04420
C          C       0.91808   0.21395   0.79688  -0.11188
C          C       0.99143   0.57199   0.89563   0.11486
C          C       0.98928   0.58413   0.85280  -0.09423
C          C       0.98233   0.51474   0.82709  -0.10613
C          C       0.97177   0.43082   0.84282   0.10953
C          C       0.96886   0.41943   0.88566  -0.09061
C          C       0.98113   0.48816   0.91133  -0.10489
C          C       0.09493   0.25928   0.38472   0.52425
C          C       0.85396   0.31359   0.51647   0.53825
C          C       0.02673   0.27333   0.41574  -0.00960
C          C       0.99346   0.35733   0.42343   0.06285
C          C       0.94002   0.36900   0.45773  -0.14173
C          C       0.91603   0.30020   0.48199  -0.00444
C          C       0.94685   0.21734   0.47310  -0.04097
C          C       0.00229   0.20454   0.44046  -0.10337
C          C       0.14952   0.71776   0.35794   0.52251
C          C       0.90865   0.72070   0.22379   0.53108
C          C       0.08620   0.71734   0.32404   0.00569
C          C       0.03325   0.64383   0.31614   0.06389
C          C       0.98014   0.64491   0.28143  -0.14943
C          C       0.97551   0.71655   0.25657   0.00793
C          C       0.02858   0.78819   0.26451  -0.04199
C          C       0.08338   0.78804   0.29778  -0.11124
C          C       0.00860   0.42901   0.39612   0.11653
C          C       0.01067   0.41736   0.35322  -0.09476
C          C       0.01800   0.48693   0.32764  -0.10441
C          C       0.02882   0.57079   0.34350   0.11224
C          C       0.03148   0.58174   0.38636  -0.09105
C          C       0.01871   0.51285   0.41191  -0.10418
C          C       0.25875   0.09532   0.61546   0.52214
C          C       0.31142   0.84967   0.48602   0.53242
C          C       0.27233   0.02722   0.58448  -0.00712
C          C       0.35633   0.99326   0.57705   0.06290
C          C       0.36782   0.93809   0.54352  -0.14480
C          C       0.29859   0.91332   0.51966  -0.00138
C          C       0.21572   0.94525   0.52811  -0.04260
C          C       0.20325   0.00247   0.55997  -0.10223
C          C       0.71798   0.14924   0.64229   0.52298
C          C       0.71882   0.90606   0.77540   0.53429
C          C       0.71746   0.08553   0.67601   0.00347
C          C       0.64362   0.03287   0.68372   0.06396
C          C       0.64459   0.97875   0.71804  -0.14762
C          C       0.71641   0.97319   0.74277   0.00457
C          C       0.78847   0.02578   0.73504  -0.04450
C          C       0.78855   0.08134   0.70204  -0.11096
C          C       0.42819   0.00938   0.60416   0.11606
C          C       0.41648   0.01165   0.64704  -0.09426
C          C       0.48631   0.01860   0.67252  -0.10846
C          C       0.57032   0.02916   0.65649   0.11171
C          C       0.58127   0.03193   0.61363  -0.08997
C          C       0.51210   0.01949   0.58819  -0.10287
C          C       0.74154   0.90423   0.11496   0.52011
C          C       0.68889   0.14800   0.98493   0.53261
C          C       0.72833   0.97227   0.08395  -0.00329
C          C       0.64426   0.00602   0.07651   0.06249
C          C       0.63276   0.06036   0.04270  -0.14787
C          C       0.70199   0.08457   0.01861  -0.00279
C          C       0.78487   0.05284   0.02703  -0.03923
C          C       0.79740   0.99640   0.05918  -0.10568
C          C       0.28545   0.85005   0.14311   0.52518
C          C       0.28095   0.09552   0.27544   0.53667
C          C       0.28464   0.91387   0.17681   0.00097
C          C       0.35782   0.96738   0.18428   0.06271
C          C       0.35633   0.02194   0.21846  -0.14546
C          C       0.28424   0.02749   0.24316   0.00093
C          C       0.21267   0.97419   0.23557  -0.04481
C          C       0.21339   0.91783   0.20285  -0.11117
C          C       0.57250   0.99052   0.10385   0.11492
C          C       0.58455   0.98842   0.14670  -0.09172
C          C       0.51495   0.98179   0.17245  -0.10447
C          C       0.43084   0.97134   0.15676   0.11163
C          C       0.41942   0.96857   0.11391  -0.09184
C          C       0.48838   0.98068   0.08819  -0.10582
C          C       0.59693   0.24149   0.86557   0.52013
C          C       0.34989   0.18719   0.73661   0.53225
C          C       0.52767   0.22818   0.83505  -0.00279
C          C       0.49404   0.14406   0.82768   0.06341
C          C       0.43886   0.13220   0.79415  -0.14385
C          C       0.41358   0.20098   0.77024  -0.00233
C          C       0.44513   0.28392   0.77864  -0.03928
C          C       0.50238   0.29686   0.81047  -0.10816
C          C       0.65377   0.78579   0.89351   0.52434
C          C       0.40497   0.77912   0.02492   0.53177
C          C       0.58886   0.78484   0.92689   0.00290
C          C       0.53528   0.85777   0.93452   0.06210
C          C       0.47986   0.85572   0.96851  -0.14677
C          C       0.47347   0.78332   0.99278   0.00356
C          C       0.52668   0.71193   0.98496  -0.04452
C          C       0.58390   0.71319   0.95249  -0.11167
C          C       0.51057   0.07250   0.85480   0.11427
C          C       0.51337   0.08425   0.89767  -0.09400
C          C       0.52074   0.01464   0.92320  -0.10451
C          C       0.53149   0.93093   0.90726   0.11334
C          C       0.53397   0.91995   0.86438  -0.09202
C          C       0.52077   0.98882   0.83891  -0.10036
C          C       0.40292   0.75871   0.36441   0.52021
C          C       0.65010   0.81524   0.23534   0.53563
C          C       0.47195   0.77257   0.33374  -0.00442
C          C       0.50522   0.85693   0.32655   0.06389
C          C       0.56055   0.86952   0.29303  -0.14512
C          C       0.58614   0.80116   0.26896  -0.00348
C          C       0.55472   0.71807   0.27709  -0.04137
C          C       0.49751   0.70439   0.30896  -0.10661
C          C       0.34820   0.21621   0.39348   0.52471
C          C       0.59539   0.21519   0.52519   0.53330
C          C       0.41252   0.21571   0.42697   0.00261
C          C       0.46510   0.14187   0.43413   0.06372
C          C       0.52011   0.14212   0.46815  -0.14675
C          C       0.52681   0.21336   0.49310   0.00505
C          C       0.47403   0.28537   0.48600  -0.04529
C          C       0.41750   0.28606   0.45334  -0.11246
C          C       0.48839   0.92813   0.35382   0.11546
C          C       0.48550   0.91588   0.39666  -0.09372
C          C       0.47837   0.98521   0.42235  -0.10683
C          C       0.46812   0.06917   0.40660   0.11318
C          C       0.46542   0.08064   0.36377  -0.09128
C          C       0.47819   0.01200   0.33811  -0.10212
O          O       0.29873   0.58816   0.10767  -0.46093
O          O       0.19431   0.66255   0.13763  -0.46994
O          O       0.25181   0.33715   0.28705  -0.49488
O          O       0.11579   0.31295   0.26843  -0.47469
O          O       0.73147   0.64451   0.13540  -0.45724
O          O       0.84058   0.71109   0.10487  -0.46402
O          O       0.70600   0.39353   0.95758  -0.49222
O          O       0.84426   0.36019   0.96738  -0.50516
O          O       0.70124   0.41168   0.60879  -0.46390
O          O       0.80598   0.33735   0.63845  -0.46885
O          O       0.74924   0.66282   0.78798  -0.49446
O          O       0.88288   0.69193   0.76613  -0.47242
O          O       0.27169   0.35495   0.63428  -0.45761
O          O       0.16047   0.28968   0.60444  -0.46009
O          O       0.29352   0.61038   0.45886  -0.49239
O          O       0.15163   0.63223   0.46430  -0.50269
O          O       0.91353   0.80022   0.85900  -0.46352
O          O       0.83974   0.69247   0.88686  -0.46923
O          O       0.16063   0.74964   0.03895  -0.49328
O          O       0.19406   0.61857   0.01618  -0.46790
O          O       0.85751   0.22965   0.88463  -0.45425
O          O       0.79223   0.34191   0.85639  -0.46347
O          O       0.10829   0.20815   0.70720  -0.49442
O          O       0.13767   0.34767   0.71491  -0.50199
O          O       0.08632   0.19925   0.35913  -0.46198
O          O       0.16036   0.30769   0.38589  -0.47566
O          O       0.83518   0.24636   0.53734  -0.49916
O          O       0.82303   0.38630   0.52322  -0.48174
O          O       0.14231   0.77414   0.38552  -0.45250
O          O       0.20813   0.66177   0.35751  -0.46415
O          O       0.89143   0.79588   0.21006  -0.49240
O          O       0.87093   0.65380   0.21216  -0.49945
O          O       0.19926   0.08656   0.64149  -0.46100
O          O       0.30752   0.16040   0.61406  -0.47507
O          O       0.24673   0.83854   0.46228  -0.49654
O          O       0.38121   0.81037   0.48264  -0.47420
O          O       0.77454   0.14221   0.61468  -0.45250
O          O       0.66188   0.20783   0.64261  -0.46687
O          O       0.79234   0.89161   0.79180  -0.49594
O          O       0.65148   0.86588   0.78442  -0.49888
O          O       0.80063   0.91309   0.14117  -0.46481
O          O       0.69282   0.83930   0.11322  -0.47062
O          O       0.75356   0.16070   0.96136  -0.49506
O          O       0.61834   0.18607   0.98156  -0.47328
O          O       0.22955   0.85727   0.11525  -0.45551
O          O       0.34194   0.79196   0.14352  -0.46655
O          O       0.20785   0.10825   0.29266  -0.49525
O          O       0.34716   0.13842   0.28336  -0.50337
O          O       0.58845   0.29862   0.89268  -0.45927
O          O       0.66285   0.19449   0.86254  -0.46922
O          O       0.33731   0.25154   0.71294  -0.49604
O          O       0.31213   0.11659   0.73318  -0.47181
O          O       0.64495   0.73197   0.86482  -0.45624
O          O       0.71414   0.83977   0.89503  -0.46213
O          O       0.39378   0.70625   0.04237  -0.49251
O          O       0.36005   0.84416   0.03260  -0.50537
O          O       0.41166   0.70155   0.39152  -0.46360
O          O       0.33703   0.80580   0.36164  -0.46978
O          O       0.66777   0.74879   0.21375  -0.50103
O          O       0.68327   0.88760   0.23008  -0.47423
O          O       0.35540   0.27243   0.36576  -0.45642
O          O       0.28968   0.16007   0.39400  -0.46427
O          O       0.61068   0.28885   0.54130  -0.49838
O          O       0.63553   0.14793   0.53384  -0.49632

