data_crystal

_audit_creation_method 'AiiDA-DDEC plugin'

_cell_length_a        11.15693
_cell_length_b        18.73201
_cell_length_c        20.56501

_cell_angle_alpha     89.93195
_cell_angle_beta     90.02361
_cell_angle_gamma     105.98736

_symmetry_space_group_name_Hall 'P 1'
_symmetry_space_group_name_H-M  'P 1'

loop_
_symmetry_equiv_pos_as_xyz
 'x,y,z'

loop_
_atom_site_label
_atom_site_type_symbol
_atom_site_fract_x
_atom_site_fract_y
_atom_site_fract_z
_atom_site_charge
Zn         Zn      0.95336   0.57940   0.89765   0.85706
Zn         Zn      0.04968   0.16548   0.35252   0.78131
Zn         Zn      0.04676   0.92051   0.39787   0.85675
Zn         Zn      0.95017   0.33454   0.85228   0.78113
Zn         Zn      0.04664   0.42060   0.10235   0.85712
Zn         Zn      0.95032   0.83452   0.64747   0.78133
Zn         Zn      0.95324   0.07949   0.60213   0.85669
Zn         Zn      0.04982   0.66547   0.14771   0.78130
H          H       0.91839   0.46020   0.77130   0.10638
H          H       0.09180   0.68900   0.79541   0.13661
H          H       0.09501   0.65385   0.66361   0.11682
H          H       0.00697   0.54173   0.60009   0.08623
H          H       0.88700   0.47055   0.63568   0.08281
H          H       0.04212   0.40643   0.67516   0.10042
H          H       0.16501   0.47844   0.64294   0.09559
H          H       0.94921   0.38348   0.56016   0.09055
H          H       0.08174   0.45107   0.53111   0.08552
H          H       0.07207   0.29945   0.59197   0.12009
H          H       0.21430   0.36957   0.58136   0.10028
H          H       0.00432   0.21435   0.50049   0.12611
H          H       0.20518   0.33666   0.34252   0.14007
H          H       0.24743   0.42477   0.45404   0.12829
H          H       0.84750   0.03690   0.42494   0.13034
H          H       0.79889   0.18375   0.27705   0.13409
H          H       0.56541   0.09439   0.31602   0.13636
H          H       0.62177   0.94852   0.42845   0.09977
H          H       0.50229   0.97545   0.38668   0.11255
H          H       0.51834   0.07780   0.47004   0.08659
H          H       0.63509   0.04719   0.51152   0.10405
H          H       0.64163   0.36622   0.84833   0.12047
H          H       0.45949   0.26101   0.87093   0.10901
H          H       0.59662   0.25047   0.06669   0.12285
H          H       0.37553   0.08949   0.10436   0.10752
H          H       0.27078   0.10704   0.20549   0.11385
H          H       0.31733   0.29292   0.03026   0.11675
H          H       0.08174   0.03956   0.27150   0.10632
H          H       0.90691   0.81087   0.29543   0.13601
H          H       0.90544   0.84622   0.16355   0.11664
H          H       0.99397   0.95838   0.10014   0.08600
H          H       0.11359   0.02965   0.13581   0.08299
H          H       0.95801   0.09346   0.17501   0.10006
H          H       0.83543   0.02133   0.14285   0.09526
H          H       0.05091   0.11663   0.05997   0.08940
H          H       0.91837   0.04904   0.03101   0.08532
H          H       0.92785   0.20043   0.09200   0.11991
H          H       0.78569   0.13025   0.08148   0.10062
H          H       0.99565   0.28567   0.00042   0.12645
H          H       0.79500   0.16350   0.84250   0.13992
H          H       0.75193   0.07542   0.95427   0.12779
H          H       0.15252   0.46304   0.92481   0.13053
H          H       0.20119   0.31632   0.77716   0.13387
H          H       0.43458   0.40572   0.81599   0.13704
H          H       0.37807   0.55144   0.92828   0.10055
H          H       0.49765   0.52462   0.88660   0.11269
H          H       0.48175   0.42223   0.97014   0.08639
H          H       0.36495   0.45277   0.01152   0.10391
H          H       0.35958   0.13436   0.34799   0.12043
H          H       0.54042   0.24042   0.37094   0.10925
H          H       0.40252   0.24925   0.56652   0.12262
H          H       0.62218   0.41038   0.60511   0.10939
H          H       0.72887   0.39243   0.70561   0.11353
H          H       0.68018   0.20742   0.52999   0.11657
H          H       0.08161   0.53981   0.22869   0.10650
H          H       0.90820   0.31100   0.20459   0.13661
H          H       0.90498   0.34615   0.33639   0.11666
H          H       0.99303   0.45827   0.39991   0.08608
H          H       0.11299   0.52945   0.36432   0.08278
H          H       0.95787   0.59358   0.32484   0.10055
H          H       0.83499   0.52157   0.35706   0.09567
H          H       0.05078   0.61653   0.43984   0.09050
H          H       0.91826   0.54893   0.46889   0.08533
H          H       0.92793   0.70055   0.40803   0.12016
H          H       0.78569   0.63044   0.41864   0.10051
H          H       0.99568   0.78566   0.49951   0.12621
H          H       0.79481   0.66334   0.65747   0.14003
H          H       0.75256   0.57523   0.54596   0.12822
H          H       0.15249   0.96310   0.57506   0.13052
H          H       0.20110   0.81626   0.72295   0.13392
H          H       0.43459   0.90561   0.68398   0.13624
H          H       0.37822   0.05148   0.57155   0.10006
H          H       0.49771   0.02456   0.61332   0.11239
H          H       0.48166   0.92220   0.52995   0.08644
H          H       0.36491   0.95281   0.48848   0.10419
H          H       0.35837   0.63378   0.15167   0.12036
H          H       0.54051   0.73900   0.12907   0.10893
H          H       0.40338   0.74954   0.93331   0.12289
H          H       0.62447   0.91051   0.89563   0.10767
H          H       0.72922   0.89297   0.79451   0.11399
H          H       0.68266   0.70708   0.96974   0.11657
H          H       0.91826   0.96045   0.72850   0.10632
H          H       0.09309   0.18913   0.70456   0.13628
H          H       0.09456   0.15378   0.83645   0.11661
H          H       0.00603   0.04162   0.89986   0.08604
H          H       0.88641   0.97036   0.86419   0.08304
H          H       0.04199   0.90654   0.82499   0.09993
H          H       0.16456   0.97867   0.85715   0.09523
H          H       0.94909   0.88337   0.94003   0.08947
H          H       0.08162   0.95097   0.96899   0.08533
H          H       0.07214   0.79957   0.90800   0.11986
H          H       0.21430   0.86976   0.91852   0.10057
H          H       0.00435   0.71434  -0.00042   0.12654
H          H       0.20499   0.83650   0.15750   0.13983
H          H       0.24807   0.92458   0.04572   0.12781
H          H       0.84748   0.53696   0.07519   0.13038
H          H       0.79880   0.68368   0.22284   0.13390
H          H       0.56542   0.59428   0.18401   0.13707
H          H       0.62193   0.44856   0.07172   0.10022
H          H       0.50234   0.47538   0.11340   0.11266
H          H       0.51824   0.57777   0.02986   0.08664
H          H       0.63505   0.54724   0.98848   0.10393
H          H       0.64041   0.86564   0.65201   0.12041
H          H       0.45957   0.75958   0.62906   0.10928
H          H       0.59747   0.75076   0.43348   0.12266
H          H       0.37782   0.58962   0.39489   0.10923
H          H       0.27113   0.60757   0.29438   0.11348
H          H       0.31981   0.79258   0.47001   0.11669
C          C       0.96648   0.51772   0.76093   0.07820
C          C       0.05807   0.63679   0.77025  -0.00774
C          C       0.06058   0.61978   0.70565  -0.12959
C          C       0.98561   0.50138   0.64002  -0.06964
C          C       0.06675   0.44763   0.63576  -0.17712
C          C       0.04879   0.40913   0.56935  -0.17350
C          C       0.11802   0.34929   0.56378  -0.06586
C          C       0.06465   0.25818   0.47146   0.09183
C          C       0.17060   0.32455   0.39168  -0.03229
C          C       0.19073   0.36860   0.44607  -0.12641
C          C       0.80437   0.06584   0.39018   0.09785
C          C       0.77385   0.14075   0.31380  -0.04904
C          C       0.65861   0.09726   0.33256  -0.11956
C          C       0.58425   0.99570   0.41809  -0.06163
C          C       0.55071   0.02877   0.48140  -0.17383
C          C       0.82683   0.43433   0.92694   0.60803
C          C       0.72023   0.36862   0.94421  -0.03708
C          C       0.62944   0.34131   0.89656  -0.10623
C          C       0.52630   0.28124   0.90960  -0.13756
C          C       0.51077   0.24847   0.97157   0.06442
C          C       0.60244   0.27527   0.01856  -0.14172
C          C       0.70817   0.33361   0.00522  -0.05373
C          C       0.80984   0.35142   0.05571   0.54109
C          C       0.40409   0.18018   0.99029  -0.26142
C          C       0.29305   0.16568   0.94160   0.68856
C          C       0.45667   0.11156   0.98708   0.69041
C          C       0.35075   0.18893   0.05788   0.08719
C          C       0.33970   0.13744   0.10861  -0.16972
C          C       0.27962   0.14690   0.16604  -0.08926
C          C       0.22503   0.20536   0.17390  -0.05337
C          C       0.14508   0.20523   0.23264   0.55316
C          C       0.24119   0.25923   0.12440   0.00087
C          C       0.20009   0.32949   0.12967   0.57941
C          C       0.30531   0.25069   0.06777  -0.17259
C          C       0.03354   0.98209   0.26102   0.07972
C          C       0.94126   0.86311   0.27030  -0.00732
C          C       0.93951   0.88020   0.20565  -0.12886
C          C       0.01504  -0.00131   0.14003  -0.06983
C          C       0.93362   0.05228   0.13566  -0.17675
C          C       0.95136   0.09089   0.06924  -0.17171
C          C       0.88190   0.15066   0.06381  -0.06628
C          C       0.93531   0.24187   0.97141   0.09254
C          C       0.82931   0.17557   0.89170  -0.03194
C          C       0.80884   0.13155   0.94619  -0.12662
C          C       0.19564   0.43412   0.89012   0.09750
C          C       0.22619   0.35933   0.81383  -0.04942
C          C       0.34141   0.40281   0.83257  -0.12007
C          C       0.41571   0.50431   0.91802  -0.06220
C          C       0.44933   0.47123   0.98140  -0.17322
C          C       0.17327   0.06542   0.42715   0.60842
C          C       0.28013   0.13116   0.44400  -0.03749
C          C       0.37091   0.15902   0.39632  -0.10506
C          C       0.47342   0.21951   0.40944  -0.13684
C          C       0.48840   0.25192   0.47149   0.06366
C          C       0.39685   0.22454   0.51840  -0.14143
C          C       0.29169   0.16596   0.50504  -0.05382
C          C       0.19002   0.14795   0.55556   0.54080
C          C       0.59394   0.32048   0.49074  -0.26083
C          C       0.70624   0.33640   0.44278   0.68816
C          C       0.53918   0.38845   0.48694   0.68989
C          C       0.64649   0.31104   0.55837   0.08729
C          C       0.65835   0.36250   0.60901  -0.16871
C          C       0.71928   0.35278   0.66607  -0.09050
C          C       0.77331   0.29408   0.67376  -0.05246
C          C       0.85353   0.29424   0.73239   0.55470
C          C       0.75706   0.24041   0.62417   0.00020
C          C       0.79861   0.17028   0.62960   0.58026
C          C       0.69251   0.24932   0.56776  -0.17218
C          C       0.03351   0.48228   0.23907   0.07853
C          C       0.94192   0.36321   0.22975  -0.00794
C          C       0.93942   0.38022   0.29435  -0.12945
C          C       0.01438   0.49863   0.35998  -0.06965
C          C       0.93324   0.55237   0.36424  -0.17705
C          C       0.95120   0.59087   0.43065  -0.17354
C          C       0.88197   0.65071   0.43621  -0.06591
C          C       0.93535   0.74182   0.52854   0.09185
C          C       0.82940   0.67546   0.60831  -0.03243
C          C       0.80927   0.63141   0.55393  -0.12648
C          C       0.19563   0.93416   0.60981   0.09829
C          C       0.22615   0.85926   0.68620  -0.04913
C          C       0.34139   0.90274   0.66744  -0.11977
C          C       0.41574   0.00430   0.58191  -0.06167
C          C       0.44929   0.97123   0.51860  -0.17397
C          C       0.17316   0.56568   0.07306   0.60809
C          C       0.27976   0.63139   0.05579  -0.03714
C          C       0.37055   0.65870   0.10344  -0.10622
C          C       0.47370   0.71877   0.09040  -0.13763
C          C       0.48923   0.75153   0.02843   0.06442
C          C       0.39756   0.72474   0.98144  -0.14158
C          C       0.29182   0.66640   0.99478  -0.05386
C          C       0.19016   0.64858   0.94429   0.54103
C          C       0.59591   0.81983   0.00971  -0.26109
C          C       0.70694   0.83432   0.05840   0.68849
C          C       0.54332   0.88845   0.01292   0.68986
C          C       0.64924   0.81108   0.94211   0.08694
C          C       0.66030   0.86256   0.89139  -0.16948
C          C       0.72037   0.85310   0.83396  -0.08911
C          C       0.77496   0.79464   0.82610  -0.05344
C          C       0.85491   0.79477   0.76736   0.55333
C          C       0.75881   0.74078   0.87560   0.00079
C          C       0.79991   0.67051   0.87033   0.57953
C          C       0.69468   0.74932   0.93223  -0.17258
C          C       0.96645   0.01791   0.73898   0.07951
C          C       0.05873   0.13690   0.72970  -0.00750
C          C       0.06048   0.11980   0.79435  -0.12866
C          C       0.98496   0.00132   0.85996  -0.06983
C          C       0.06637   0.94773   0.86434  -0.17664
C          C       0.04864   0.90912   0.93076  -0.17172
C          C       0.11809   0.84935   0.93619  -0.06638
C          C       0.06469   0.75813   0.02859   0.09223
C          C       0.17069   0.82443   0.10830  -0.03207
C          C       0.19116   0.86845   0.05381  -0.12639
C          C       0.80435   0.56588   0.10988   0.09750
C          C       0.77381   0.64068   0.18617  -0.04933
C          C       0.65858   0.59720   0.16743  -0.11991
C          C       0.58429   0.49569   0.08198  -0.06214
C          C       0.55067   0.52877   0.01860  -0.17334
C          C       0.82673   0.93458   0.57285   0.60830
C          C       0.71987   0.86884   0.55600  -0.03743
C          C       0.62909   0.84099   0.60368  -0.10505
C          C       0.52657   0.78049   0.59056  -0.13688
C          C       0.51159   0.74808   0.52851   0.06361
C          C       0.60314   0.77546   0.48160  -0.14136
C          C       0.70831   0.83404   0.49496  -0.05396
C          C       0.80997   0.85206   0.44444   0.54106
C          C       0.40606   0.67952   0.50926  -0.26074
C          C       0.29376   0.66360   0.55722   0.68832
C          C       0.46082   0.61155   0.51306   0.68997
C          C       0.35351   0.68897   0.44163   0.08713
C          C       0.34164   0.63751   0.39099  -0.16886
C          C       0.28072   0.64723   0.33392  -0.09047
C          C       0.22669   0.70592   0.32624  -0.05256
C          C       0.14647   0.70576   0.26761   0.55484
C          C       0.24293   0.75959   0.37582   0.00038
C          C       0.20138   0.82972   0.37039   0.58008
C          C       0.30749   0.75068   0.43224  -0.17214
N          N      -0.00052   0.57292   0.80413  -0.28804
N          N       0.00262   0.54428   0.70032   0.05293
N          N       0.12357   0.32578   0.49604   0.06452
N          N       0.09195   0.25577   0.40819  -0.29785
N          N       0.86403   0.12055   0.35007  -0.28838
N          N       0.67953   0.05014   0.38066   0.06285
N          N      -0.00010   0.92685   0.30426  -0.28819
N          N      -0.00208   0.95566   0.20035   0.05092
N          N       0.87607   0.17432   0.99609   0.06395
N          N       0.90814   0.24428   0.90811  -0.29829
N          N       0.13598   0.37947   0.85004  -0.28758
N          N       0.32049   0.44986   0.88062   0.06273
N          N       0.00051   0.42709   0.19587  -0.28801
N          N      -0.00262   0.45572   0.29968   0.05259
N          N       0.87643   0.67422   0.50396   0.06452
N          N       0.90804   0.74423   0.59180  -0.29776
N          N       0.13597   0.87945   0.64993  -0.28846
N          N       0.32047   0.94986   0.61934   0.06278
N          N       0.00010   0.07315   0.69574  -0.28800
N          N       0.00207   0.04434   0.79965   0.05076
N          N       0.12393   0.82568   0.00391   0.06428
N          N       0.09186   0.75572   0.09189  -0.29843
N          N       0.86401   0.62054   0.14996  -0.28772
N          N       0.67950   0.55015   0.11938   0.06268
O          O       0.92112   0.42500   0.89652  -0.54587
O          O       0.81286   0.49832   0.93817  -0.51405
O          O       0.90314   0.40855   0.04214  -0.55658
O          O       0.80080   0.31011   0.10406  -0.53771
O          O       0.16473   0.16416   0.28088  -0.57122
O          O       0.06295   0.23883   0.23345  -0.53494
O          O       0.25920   0.37995   0.16572  -0.54198
O          O       0.10872   0.33153   0.09071  -0.58270
O          O       0.07935   0.07485   0.39647  -0.54572
O          O       0.18667   0.00132   0.43884  -0.51455
O          O       0.09681   0.09070   0.54210  -0.55629
O          O       0.19905   0.18935   0.60379  -0.53725
O          O       0.83559   0.33620   0.78024  -0.57310
O          O       0.93466   0.26000   0.73343  -0.53558
O          O       0.73909   0.11973   0.66560  -0.54177
O          O       0.89076   0.16860   0.59105  -0.58311
O          O       0.07888   0.57500   0.10347  -0.54576
O          O       0.18713   0.50169   0.06183  -0.51428
O          O       0.09686   0.59146   0.95786  -0.55676
O          O       0.19920   0.68989   0.89594  -0.53735
O          O       0.83527   0.83584   0.71912  -0.57097
O          O       0.93704   0.76117   0.76654  -0.53536
O          O       0.74079   0.62005   0.83428  -0.54202
O          O       0.89128   0.66848   0.90929  -0.58282
O          O       0.92064   0.92515   0.60353  -0.54583
O          O       0.81333  -0.00131   0.56115  -0.51422
O          O       0.90318   0.90931   0.45790  -0.55628
O          O       0.80095   0.81065   0.39621  -0.53742
O          O       0.16440   0.66380   0.21976  -0.57346
O          O       0.06534   0.74000   0.26657  -0.53527
O          O       0.26091   0.88027   0.33440  -0.54158
O          O       0.10924   0.83140   0.40894  -0.58308
F          F       0.25401   0.22785   0.93178  -0.19560
F          F       0.19322   0.11107   0.96418  -0.21364
F          F       0.32096   0.14283   0.88207  -0.20359
F          F       0.50953   0.10663   0.92859  -0.20631
F          F       0.36459   0.04625   0.99657  -0.22882
F          F       0.54564   0.11417   0.03280  -0.19246
F          F       0.74572   0.27494   0.43177  -0.19341
F          F       0.80632   0.38941   0.46722  -0.21323
F          F       0.67930   0.36081   0.38336  -0.20632
F          F       0.48522   0.39293   0.42830  -0.20761
F          F       0.62988   0.45416   0.49658  -0.22710
F          F       0.44913   0.38561   0.53243  -0.19625
F          F       0.74598   0.77215   0.06822  -0.19584
F          F       0.80677   0.88893   0.03582  -0.21354
F          F       0.67904   0.85717   0.11792  -0.20361
F          F       0.49046   0.89338   0.07141  -0.20615
F          F       0.63540   0.95375   0.00343  -0.22861
F          F       0.45435   0.88584   0.96720  -0.19211
F          F       0.25428   0.72506   0.56823  -0.19314
F          F       0.19368   0.61060   0.53278  -0.21325
F          F       0.32069   0.63920   0.61664  -0.20668
F          F       0.51478   0.60708   0.57170  -0.20788
F          F       0.37012   0.54584   0.50342  -0.22722
F          F       0.55087   0.61440   0.46757  -0.19631

