data_crystal

_audit_creation_method 'AiiDA-DDEC plugin'

_cell_length_a         7.55132
_cell_length_b        23.62412
_cell_length_c        29.31966

_cell_angle_alpha     90.00000
_cell_angle_beta     90.00000
_cell_angle_gamma     91.72428

_symmetry_space_group_name_Hall 'P 1'
_symmetry_space_group_name_H-M  'P 1'

loop_
_symmetry_equiv_pos_as_xyz
 'x,y,z'

loop_
_atom_site_label
_atom_site_type_symbol
_atom_site_fract_x
_atom_site_fract_y
_atom_site_fract_z
_atom_site_charge
Cu         Cu      0.24178   0.90713   0.21068   0.89492
Cu         Cu      0.51798   0.91192   0.26784   0.95985
Cu         Cu      0.75822   0.59287   0.71068   0.89492
Cu         Cu      0.48202   0.58808   0.76784   0.95984
Cu         Cu      0.75822   0.09287   0.78933   0.89485
Cu         Cu      0.48202   0.08808   0.73216   0.95986
Cu         Cu      0.24177   0.40713   0.28932   0.89489
Cu         Cu      0.51798   0.41192   0.23216   0.95987
H          H       0.87294   0.79806   0.28724   0.12751
H          H       0.72494   0.72931   0.33901   0.11886
H          H       0.20903   0.71883   0.41652   0.10673
H          H       0.35438   0.78497   0.36343   0.12104
H          H       0.97484   0.62358   0.33902   0.11886
H          H       0.84262   0.54399   0.29488   0.12266
H          H       0.38171   0.54476   0.38007   0.12137
H          H       0.51338   0.62225   0.42572   0.10829
H          H       0.87679   0.78353   0.21339   0.12476
H          H       0.00583   0.70425   0.17130   0.11667
H          H       0.55731   0.70097   0.08013   0.10758
H          H       0.42717   0.77701   0.12421   0.11079
H          H       0.75530   0.59690   0.16959   0.11993
H          H       0.89096   0.52506   0.21869   0.12658
H          H       0.37116   0.54041   0.14136   0.12165
H          H       0.23690   0.60939   0.09049   0.10511
H          H       0.86165   0.95979   0.15939   0.10766
H          H       0.16979   0.82097   0.12489   0.11350
H          H       0.91168   0.83347   0.05797   0.12553
H          H       0.46979   0.89288   0.10788   0.14858
H          H       0.28401   0.94865   0.04852   0.13243
H          H       0.08596   0.91312   0.38053   0.18115
H          H       0.91835   0.87625   0.41301   0.17892
H          H       0.92960   0.95234   0.41263   0.17743
H          H       0.12706   0.70195   0.78724   0.12751
H          H       0.27506   0.77069   0.83901   0.11887
H          H       0.79097   0.78117   0.91652   0.10675
H          H       0.64563   0.71503   0.86343   0.12103
H          H       0.02516   0.87642   0.83902   0.11880
H          H       0.15739   0.95602   0.79488   0.12268
H          H       0.61829   0.95524   0.88007   0.12143
H          H       0.48662   0.87775   0.92572   0.10827
H          H       0.12321   0.71647   0.71339   0.12477
H          H       0.99417   0.79575   0.67130   0.11667
H          H       0.44269   0.79903   0.58013   0.10756
H          H       0.57283   0.72299   0.62421   0.11081
H          H       0.24470   0.90310   0.66959   0.11994
H          H       0.10905   0.97494   0.71869   0.12662
H          H       0.62884   0.95960   0.64136   0.12166
H          H       0.76310   0.89061   0.59049   0.10508
H          H       0.13835   0.54021   0.65939   0.10762
H          H       0.83022   0.67903   0.62489   0.11353
H          H       0.08833   0.66653   0.55797   0.12552
H          H       0.53021   0.60712   0.60788   0.14857
H          H       0.71599   0.55135   0.54852   0.13244
H          H       0.91404   0.58688   0.88053   0.18116
H          H       0.08165   0.62375   0.91301   0.17896
H          H       0.07040   0.54766   0.91263   0.17739
H          H       0.12706   0.20195   0.71276   0.12751
H          H       0.27506   0.27069   0.66099   0.11886
H          H       0.79097   0.28117   0.58348   0.10671
H          H       0.64562   0.21503   0.63657   0.12105
H          H       0.02516   0.37642   0.66098   0.11887
H          H       0.15738   0.45601   0.70512   0.12277
H          H       0.61829   0.45524   0.61993   0.12140
H          H       0.48662   0.37775   0.57428   0.10823
H          H       0.12321   0.21647   0.78662   0.12473
H          H       0.99417   0.29575   0.82871   0.11666
H          H       0.44269   0.29903   0.91988   0.10758
H          H       0.57283   0.22299   0.87579   0.11079
H          H       0.24470   0.40310   0.83041   0.11993
H          H       0.10904   0.47494   0.78131   0.12656
H          H       0.62884   0.45960   0.85865   0.12169
H          H       0.76310   0.39061   0.90951   0.10513
H          H       0.13835   0.04021   0.84061   0.10761
H          H       0.83021   0.17903   0.87511   0.11350
H          H       0.08832   0.16653   0.94203   0.12557
H          H       0.53021   0.10712   0.89212   0.14860
H          H       0.71599   0.05135   0.95148   0.13238
H          H       0.91404   0.08688   0.61947   0.18118
H          H       0.08165   0.12375   0.58699   0.17893
H          H       0.07040   0.04766   0.58737   0.17735
H          H       0.87294   0.29805   0.21276   0.12753
H          H       0.72494   0.22931   0.16099   0.11889
H          H       0.20903   0.21883   0.08348   0.10672
H          H       0.35437   0.28497   0.13657   0.12099
H          H       0.97484   0.12358   0.16098   0.11884
H          H       0.84261   0.04399   0.20512   0.12267
H          H       0.38171   0.04476   0.11993   0.12144
H          H       0.51338   0.12225   0.07428   0.10825
H          H       0.87679   0.28353   0.28662   0.12473
H          H       0.00583   0.20425   0.32871   0.11665
H          H       0.55731   0.20097   0.41988   0.10761
H          H       0.42717   0.27701   0.37579   0.11082
H          H       0.75530   0.09690   0.33041   0.11997
H          H       0.89095   0.02506   0.28131   0.12658
H          H       0.37116   0.04041   0.35865   0.12164
H          H       0.23690   0.10939   0.40951   0.10511
H          H       0.86165   0.45979   0.34061   0.10764
H          H       0.16978   0.32097   0.37511   0.11344
H          H       0.91167   0.33347   0.44203   0.12558
H          H       0.46979   0.39288   0.39212   0.14859
H          H       0.28401   0.44865   0.45148   0.13248
H          H       0.08596   0.41312   0.11947   0.18114
H          H       0.91835   0.37625   0.08699   0.17892
H          H       0.92960   0.45234   0.08737   0.17740
C          C       0.21951   0.83516   0.28922   0.57924
C          C       0.12528   0.79492   0.32125  -0.02754
C          C       0.94632   0.77958   0.31518  -0.08449
C          C       0.86268   0.74144   0.34507  -0.13749
C          C       0.95370   0.71835   0.38218   0.08042
C          C       0.13185   0.73497   0.38853  -0.15368
C          C       0.21599   0.77268   0.35842  -0.08667
C          C       0.85191   0.67616   0.41383  -0.26271
C          C       0.97807   0.64603   0.44750   0.68787
C          C       0.72246   0.71098   0.44343   0.69053
C          C       0.75573   0.62916   0.38593   0.07846
C          C       0.84526   0.60633   0.34855  -0.13284
C          C       0.77053   0.56170   0.32336  -0.08781
C          C       0.60256   0.53901   0.33456  -0.03179
C          C       0.51205   0.56214   0.37144  -0.07832
C          C       0.58770   0.60637   0.39705  -0.14812
C          C       0.52320   0.48973   0.30838   0.57417
C          C       0.55606   0.83210   0.19793   0.57409
C          C       0.64115   0.78522   0.17205  -0.02333
C          C       0.80543   0.76436   0.18484  -0.07268
C          C       0.87929   0.72019   0.16042  -0.13176
C          C       0.79313   0.69625   0.12230   0.07472
C          C       0.62948   0.71763   0.10937  -0.15028
C          C       0.55466   0.76109   0.13424  -0.08569
C          C       0.88789   0.65049   0.09478  -0.26377
C          C       0.75698   0.61335   0.06536   0.68873
C          C       0.01567   0.68278   0.06131   0.69031
C          C       0.98454   0.60904   0.12609   0.07866
C          C       0.89026   0.58476   0.16287  -0.13973
C          C       0.96676   0.54478   0.19109  -0.08375
C          C       0.14127   0.52866   0.18354  -0.02863
C          C       0.23584   0.55300   0.14713  -0.08852
C          C       0.15854   0.59232   0.11848  -0.15478
C          C       0.22603   0.48518   0.21305   0.57559
C          C       0.91538   0.92452   0.14122   0.11206
C          C       0.06927   0.85225   0.12148  -0.02615
C          C       0.94381   0.85780   0.08816  -0.11961
C          C       0.70650   0.92779   0.07498   0.04963
C          C       0.52688   0.91932   0.08101  -0.16504
C          C       0.42748   0.94998   0.04899  -0.15195
C          C       0.52937   0.98187   0.01834  -0.01145
C          C       0.94729   0.91401   0.39199  -0.42857
C          C       0.82943   0.91454   0.35300   0.39630
C          C       0.78049   0.66484   0.78922   0.57923
C          C       0.87472   0.70508   0.82125  -0.02755
C          C       0.05368   0.72042   0.81518  -0.08448
C          C       0.13732   0.75856   0.84507  -0.13754
C          C       0.04630   0.78165   0.88218   0.08045
C          C       0.86815   0.76503   0.88853  -0.15368
C          C       0.78402   0.72732   0.85842  -0.08670
C          C       0.14809   0.82384   0.91383  -0.26262
C          C       0.02193   0.85397   0.94750   0.68772
C          C       0.27754   0.78902   0.94343   0.69048
C          C       0.24428   0.87084   0.88593   0.07846
C          C       0.15474   0.89367   0.84855  -0.13278
C          C       0.22948   0.93830   0.82336  -0.08792
C          C       0.39745   0.96099   0.83456  -0.03169
C          C       0.48795   0.93786   0.87144  -0.07840
C          C       0.41230   0.89363   0.89705  -0.14806
C          C       0.47680   0.01027   0.80838   0.57429
C          C       0.44394   0.66790   0.69793   0.57417
C          C       0.35885   0.71478   0.67205  -0.02331
C          C       0.19457   0.73564   0.68484  -0.07270
C          C       0.12071   0.77981   0.66042  -0.13177
C          C       0.20687   0.80375   0.62230   0.07478
C          C       0.37052   0.78237   0.60937  -0.15028
C          C       0.44534   0.73891   0.63424  -0.08573
C          C       0.11211   0.84951   0.59478  -0.26376
C          C       0.24302   0.88665   0.56536   0.68871
C          C       0.98433   0.81722   0.56131   0.69027
C          C       0.01546   0.89097   0.62609   0.07861
C          C       0.10974   0.91524   0.66287  -0.13983
C          C       0.03324   0.95522   0.69109  -0.08362
C          C       0.85873   0.97134   0.68354  -0.02869
C          C       0.76416   0.94700   0.64713  -0.08852
C          C       0.84146   0.90768   0.61848  -0.15478
C          C       0.77397   0.01482   0.71305   0.57559
C          C       0.08462   0.57548   0.64123   0.11206
C          C       0.93073   0.64775   0.62148  -0.02613
C          C       0.05619   0.64220   0.58816  -0.11960
C          C       0.29350   0.57221   0.57498   0.04958
C          C       0.47312   0.58068   0.58101  -0.16487
C          C       0.57252   0.55002   0.54899  -0.15195
C          C       0.47063   0.51813   0.51834  -0.01146
C          C       0.05272   0.58599   0.89199  -0.42857
C          C       0.17057   0.58546   0.85300   0.39633
C          C       0.78049   0.16484   0.71079   0.57925
C          C       0.87472   0.20508   0.67875  -0.02748
C          C       0.05368   0.22042   0.68482  -0.08444
C          C       0.13732   0.25856   0.65493  -0.13753
C          C       0.04630   0.28165   0.61783   0.08037
C          C       0.86815   0.26503   0.61147  -0.15360
C          C       0.78401   0.22732   0.64159  -0.08673
C          C       0.14809   0.32384   0.58617  -0.26266
C          C       0.02193   0.35397   0.55250   0.68787
C          C       0.27754   0.28902   0.55657   0.69061
C          C       0.24427   0.37084   0.61407   0.07841
C          C       0.15474   0.39367   0.65145  -0.13278
C          C       0.22947   0.43830   0.67665  -0.08786
C          C       0.39744   0.46099   0.66545  -0.03183
C          C       0.48795   0.43786   0.62857  -0.07839
C          C       0.41230   0.39363   0.60295  -0.14808
C          C       0.47680   0.51027   0.69162   0.57412
C          C       0.44394   0.16790   0.80207   0.57419
C          C       0.35885   0.21478   0.82795  -0.02325
C          C       0.19457   0.23564   0.81516  -0.07275
C          C       0.12071   0.27981   0.83958  -0.13183
C          C       0.20687   0.30375   0.87770   0.07484
C          C       0.37052   0.28237   0.89063  -0.15027
C          C       0.44534   0.23891   0.86576  -0.08572
C          C       0.11210   0.34951   0.90522  -0.26385
C          C       0.24302   0.38665   0.93464   0.68872
C          C       0.98433   0.31722   0.93869   0.69050
C          C       0.01546   0.39096   0.87391   0.07858
C          C       0.10974   0.41524   0.83713  -0.13977
C          C       0.03324   0.45522   0.80891  -0.08371
C          C       0.85873   0.47134   0.81646  -0.02868
C          C       0.76416   0.44700   0.85287  -0.08854
C          C       0.84146   0.40768   0.88152  -0.15472
C          C       0.77397   0.51482   0.78695   0.57570
C          C       0.08462   0.07548   0.85878   0.11201
C          C       0.93073   0.14775   0.87852  -0.02590
C          C       0.05619   0.14220   0.91184  -0.11962
C          C       0.29350   0.07221   0.92502   0.04958
C          C       0.47311   0.08068   0.91899  -0.16508
C          C       0.57252   0.05002   0.95101  -0.15192
C          C       0.47063   0.01813   0.98166  -0.01142
C          C       0.05271   0.08599   0.60801  -0.42856
C          C       0.17057   0.08546   0.64700   0.39625
C          C       0.21951   0.33516   0.21078   0.57910
C          C       0.12528   0.29492   0.17875  -0.02748
C          C       0.94632   0.27958   0.18482  -0.08447
C          C       0.86267   0.24144   0.15493  -0.13750
C          C       0.95370   0.21835   0.11783   0.08040
C          C       0.13185   0.23497   0.11147  -0.15369
C          C       0.21598   0.27268   0.14159  -0.08668
C          C       0.85190   0.17616   0.08617  -0.26266
C          C       0.97807   0.14603   0.05250   0.68789
C          C       0.72246   0.21098   0.05657   0.69052
C          C       0.75572   0.12916   0.11407   0.07840
C          C       0.84526   0.10633   0.15145  -0.13282
C          C       0.77052   0.06170   0.17664  -0.08783
C          C       0.60255   0.03901   0.16544  -0.03170
C          C       0.51205   0.06214   0.12857  -0.07844
C          C       0.58770   0.10637   0.10295  -0.14800
C          C       0.52320   0.98973   0.19162   0.57426
C          C       0.55605   0.33210   0.30207   0.57409
C          C       0.64115   0.28522   0.32795  -0.02324
C          C       0.80543   0.26436   0.31516  -0.07273
C          C       0.87929   0.22019   0.33958  -0.13183
C          C       0.79313   0.19625   0.37770   0.07477
C          C       0.62947   0.21763   0.39063  -0.15025
C          C       0.55466   0.26109   0.36576  -0.08573
C          C       0.88789   0.15049   0.40522  -0.26385
C          C       0.75697   0.11335   0.43464   0.68878
C          C       0.01567   0.18278   0.43869   0.69050
C          C       0.98454   0.10904   0.37391   0.07866
C          C       0.89026   0.08476   0.33713  -0.13979
C          C       0.96676   0.04478   0.30891  -0.08368
C          C       0.14126   0.02866   0.31646  -0.02868
C          C       0.23584   0.05300   0.35287  -0.08851
C          C       0.15854   0.09232   0.38152  -0.15478
C          C       0.22603   0.98518   0.28695   0.57567
C          C       0.91537   0.42452   0.35878   0.11204
C          C       0.06927   0.35225   0.37852  -0.02606
C          C       0.94381   0.35780   0.41184  -0.11966
C          C       0.70650   0.42779   0.42502   0.04961
C          C       0.52688   0.41932   0.41899  -0.16504
C          C       0.42747   0.44998   0.45101  -0.15195
C          C       0.52937   0.48187   0.48166  -0.01150
C          C       0.94728   0.41401   0.10801  -0.42861
C          C       0.82943   0.41454   0.14700   0.39633
S          S       0.75418   0.97353   0.02963   0.10514
S          S       0.24583   0.52647   0.52963   0.10507
S          S       0.24582   0.02647   0.97037   0.10517
S          S       0.75417   0.47353   0.47037   0.10510
N          N       0.05081   0.89395   0.15432  -0.29992
N          N       0.84551   0.90432   0.10073   0.02062
N          N       0.73341   0.91525   0.32188  -0.40276
N          N       0.94919   0.60605   0.65432  -0.29988
N          N       0.15449   0.59568   0.60073   0.02061
N          N       0.26659   0.58475   0.82188  -0.40279
N          N       0.94919   0.10605   0.84568  -0.30012
N          N       0.15449   0.09568   0.89927   0.02070
N          N       0.26659   0.08475   0.67812  -0.40268
N          N       0.05080   0.39395   0.34568  -0.29994
N          N       0.84551   0.40432   0.39927   0.02066
N          N       0.73341   0.41525   0.17812  -0.40274
O          O       0.14182   0.84620   0.25174  -0.53588
O          O       0.37073   0.85437   0.30239  -0.56336
O          O       0.61746   0.46978   0.27636  -0.55482
O          O       0.36904   0.47185   0.32051  -0.54802
O          O       0.41157   0.85033   0.18169  -0.57359
O          O       0.63421   0.85013   0.23394  -0.53055
O          O       0.13480   0.46480   0.24599  -0.53342
O          O       0.38378   0.47246   0.20202  -0.56284
O          O       0.85818   0.65380   0.75174  -0.53585
O          O       0.62927   0.64563   0.80239  -0.56334
O          O       0.38254   0.03022   0.77636  -0.55482
O          O       0.63096   0.02815   0.82051  -0.54808
O          O       0.58843   0.64967   0.68169  -0.57365
O          O       0.36579   0.64987   0.73394  -0.53058
O          O       0.86520   0.03520   0.74599  -0.53344
O          O       0.61622   0.02754   0.70202  -0.56280
O          O       0.85818   0.15380   0.74826  -0.53584
O          O       0.62927   0.14563   0.69761  -0.56342
O          O       0.38254   0.53022   0.72364  -0.55469
O          O       0.63096   0.52815   0.67949  -0.54809
O          O       0.58843   0.14967   0.81831  -0.57361
O          O       0.36579   0.14987   0.76606  -0.53062
O          O       0.86520   0.53520   0.75401  -0.53357
O          O       0.61622   0.52754   0.79798  -0.56280
O          O       0.14182   0.34620   0.24826  -0.53577
O          O       0.37073   0.35437   0.19761  -0.56336
O          O       0.61746   0.96978   0.22364  -0.55479
O          O       0.36904   0.97185   0.17949  -0.54811
O          O       0.41157   0.35033   0.31831  -0.57357
O          O       0.63421   0.35013   0.26606  -0.53059
O          O       0.13480   0.96480   0.25401  -0.53357
O          O       0.38378   0.97246   0.29798  -0.56278
F          F       0.10879   0.61976   0.42479  -0.19719
F          F       0.05842   0.68302   0.47740  -0.20614
F          F       0.89258   0.60556   0.47276  -0.22641
F          F       0.80429   0.75765   0.46146  -0.22057
F          F       0.65130   0.68145   0.47934  -0.20716
F          F       0.58440   0.72888   0.41776  -0.19880
F          F       0.83931   0.56784   0.04775  -0.21620
F          F       0.68691   0.64070   0.02916  -0.21053
F          F       0.61671   0.59405   0.09094  -0.19903
F          F       0.92877   0.72331   0.03837  -0.20202
F          F       0.08907   0.64861   0.02939  -0.21244
F          F       0.15263   0.70864   0.08418  -0.19614
F          F       0.89121   0.88024   0.92479  -0.19715
F          F       0.94158   0.81698   0.97740  -0.20614
F          F       0.10742   0.89444   0.97276  -0.22631
F          F       0.19571   0.74235   0.96146  -0.22060
F          F       0.34871   0.81855   0.97935  -0.20709
F          F       0.41560   0.77112   0.91776  -0.19882
F          F       0.16069   0.93216   0.54775  -0.21612
F          F       0.31309   0.85930   0.52916  -0.21059
F          F       0.38329   0.90595   0.59094  -0.19897
F          F       0.07123   0.77670   0.53837  -0.20204
F          F       0.91093   0.85139   0.52939  -0.21244
F          F       0.84737   0.79137   0.58418  -0.19617
F          F       0.89121   0.38024   0.57521  -0.19712
F          F       0.94158   0.31698   0.52260  -0.20620
F          F       0.10741   0.39444   0.52724  -0.22643
F          F       0.19571   0.24235   0.53854  -0.22062
F          F       0.34870   0.31855   0.52066  -0.20719
F          F       0.41560   0.27112   0.58224  -0.19885
F          F       0.16069   0.43216   0.95225  -0.21610
F          F       0.31309   0.35930   0.97085  -0.21052
F          F       0.38329   0.40595   0.90906  -0.19905
F          F       0.07123   0.27670   0.96163  -0.20208
F          F       0.91093   0.35139   0.97061  -0.21242
F          F       0.84736   0.29136   0.91582  -0.19623
F          F       0.10879   0.11976   0.07521  -0.19720
F          F       0.05842   0.18302   0.02260  -0.20619
F          F       0.89258   0.10556   0.02724  -0.22640
F          F       0.80429   0.25765   0.03854  -0.22059
F          F       0.65129   0.18145   0.02066  -0.20716
F          F       0.58440   0.22888   0.08224  -0.19878
F          F       0.83931   0.06784   0.45225  -0.21620
F          F       0.68691   0.14070   0.47085  -0.21052
F          F       0.61671   0.09405   0.40906  -0.19901
F          F       0.92877   0.22331   0.46163  -0.20206
F          F       0.08907   0.14861   0.47061  -0.21246
F          F       0.15263   0.20864   0.41582  -0.19625

