data_crystal

_audit_creation_method 'AiiDA-DDEC plugin'

_cell_length_a        17.43030
_cell_length_b        17.43379
_cell_length_c        20.99064

_cell_angle_alpha     114.45576
_cell_angle_beta     114.46826
_cell_angle_gamma     89.97475

_symmetry_space_group_name_Hall 'P 1'
_symmetry_space_group_name_H-M  'P 1'

loop_
_symmetry_equiv_pos_as_xyz
 'x,y,z'

loop_
_atom_site_label
_atom_site_type_symbol
_atom_site_fract_x
_atom_site_fract_y
_atom_site_fract_z
_atom_site_charge
Cu         Cu      0.69624   0.12211   0.23063   0.21635
Cu         Cu      0.72402   0.93468   0.13466   0.27918
Cu         Cu      0.60077   0.03389   0.04405   0.21363
Cu         Cu      0.53482   0.10826   0.23071   0.21751
Cu         Cu      0.40979   0.20034   0.13473   0.28033
Cu         Cu      0.44370   0.01085   0.04467   0.21342
Cu         Cu      0.89141   0.30384   0.76876   0.21732
Cu         Cu      0.79937   0.27621   0.86512   0.28022
Cu         Cu      0.98895   0.39843   0.95486   0.21283
Cu         Cu      0.87851   0.46513   0.76996   0.21799
Cu         Cu      0.06494   0.59051   0.86545   0.27883
Cu         Cu      0.96620   0.55690   0.95666   0.21498
H          H       0.19179   0.22371   0.98812   0.15606
H          H       0.24800   0.26455   0.95154   0.14567
H          H       0.29953   0.28602   0.05233   0.13762
H          H       0.78582   0.21989   0.39570   0.12905
H          H       0.87715   0.21077   0.47035   0.15010
H          H       0.77143   0.16755   0.44798   0.14175
H          H       0.64702   0.35810   0.31811   0.15275
H          H       0.73270   0.39141   0.30376   0.13994
H          H       0.73432   0.30402   0.32677   0.12972
H          H       0.84496   0.03997   0.60886   0.13352
H          H       0.94895   0.06409   0.74495   0.13684
H          H       0.17805   0.07101   0.53004   0.12927
H          H       0.82454   0.83481   0.21676   0.14140
H          H       0.88562   0.86027   0.31786   0.13823
H          H       0.93213   0.89714   0.27213   0.15100
H          H       0.77539   0.52417   0.14996   0.13194
H          H       0.53380   0.13066   0.95371   0.14152
H          H       0.54376   0.24315   0.98293   0.13193
H          H       0.45408   0.18390   0.97471   0.15013
H          H       0.28117   0.08437   0.66343   0.12643
H          H       0.38601   0.47828   0.14091   0.12847
H          H       0.34078   0.94953   0.81216   0.14597
H          H       0.25100   0.90228   0.81290   0.14408
H          H       0.35757   0.90814   0.88059   0.13280
H          H       0.79601   0.76436   0.98825   0.15653
H          H       0.70336   0.68707   0.95180   0.14610
H          H       0.75242   0.76611   0.05254   0.13819
H          H       0.61057   0.17579   0.39618   0.12927
H          H       0.59346   0.25943   0.47054   0.15000
H          H       0.67654   0.28049   0.44782   0.14153
H          H       0.67104   0.95916   0.31783   0.15342
H          H       0.57141   0.91179   0.30430   0.13988
H          H       0.59261   0.02204   0.32706   0.12925
H          H       0.76405   0.56845   0.60864   0.13352
H          H       0.79606   0.68039   0.74466   0.13713
H          H       0.35239   0.45933   0.53006   0.12996
H          H       0.39234   0.38176   0.21662   0.14089
H          H       0.43217   0.45739   0.31761   0.13816
H          H       0.34006   0.37503   0.27215   0.15065
H          H       0.37436   0.62534   0.14961   0.13189
H          H       0.42011   0.82354   0.95398   0.14096
H          H       0.43926   0.74000   0.98298   0.13198
H          H       0.52051   0.79092   0.97450   0.15011
H          H       0.38262   0.57917   0.66329   0.12557
H          H       0.75520   0.66270   0.14149   0.12880
H          H       0.47140   0.86243   0.81181   0.14609
H          H       0.56171   0.91045   0.81223   0.14519
H          H       0.52269   0.97209   0.87987   0.13309
H          H       0.23561   0.80778   0.01152   0.15664
H          H       0.31263   0.75139   0.04823   0.14651
H          H       0.23379   0.69997   0.94741   0.13863
H          H       0.82409   0.21373   0.60327   0.12912
H          H       0.74029   0.12257   0.52901   0.14959
H          H       0.71933   0.22832   0.55190   0.14136
H          H       0.04081   0.35276   0.68159   0.15236
H          H       0.08844   0.26702   0.69576   0.14014
H          H       0.97807   0.26535   0.67272   0.12974
H          H       0.43084   0.15499   0.39103   0.13369
H          H       0.31972   0.05106   0.25491   0.13645
H          H       0.54095   0.82214   0.47006   0.12908
H          H       0.61815   0.17538   0.78323   0.14127
H          H       0.54269   0.11445   0.68220   0.13798
H          H       0.62497   0.06771   0.72791   0.15094
H          H       0.37458   0.22471   0.85019   0.13220
H          H       0.17606   0.46601   0.04575   0.14120
H          H       0.25974   0.45623   0.01692   0.13191
H          H       0.20847   0.54573   0.02484   0.14996
H          H       0.42103   0.71922   0.33696   0.12620
H          H       0.33732   0.61381   0.85875   0.12854
H          H       0.13769   0.65977   0.18864   0.14631
H          H       0.08970   0.74961   0.18786   0.14481
H          H       0.02800   0.64315   0.12047   0.13319
H          H       0.77634   0.20364   0.01198   0.15655
H          H       0.73543   0.29633   0.04845   0.14516
H          H       0.71389   0.24720   0.94765   0.13784
H          H       0.78064   0.38981   0.60485   0.12908
H          H       0.78952   0.40655   0.53002   0.14985
H          H       0.83326   0.32342   0.55272   0.14187
H          H       0.64249   0.32912   0.68260   0.15326
H          H       0.60870   0.42874   0.69610   0.13993
H          H       0.69623   0.40747   0.67335   0.12983
H          H       0.96003   0.23577   0.39121   0.13343
H          H       0.93608   0.20386   0.25510   0.13686
H          H       0.92889   0.64735   0.46981   0.12942
H          H       0.16514   0.60773   0.78320   0.14170
H          H       0.13965   0.56780   0.68210   0.13806
H          H       0.10277   0.65999   0.72766   0.15020
H          H       0.47592   0.62548   0.85038   0.13163
H          H       0.86922   0.58012   0.04649   0.14113
H          H       0.75670   0.56084   0.01725   0.13146
H          H       0.81620   0.47966   0.02595   0.14979
H          H       0.91589   0.61735   0.33663   0.12597
H          H       0.52162   0.24481   0.85878   0.12908
H          H       0.04973   0.52805   0.18706   0.14542
H          H       0.09776   0.43802   0.18695   0.14460
H          H       0.09153   0.47670   0.11893   0.13295
C          C       0.57345   0.20988   0.07611   0.18853
C          C       0.57692   0.53178   0.14506   0.02366
C          C       0.81359   0.09429   0.36269   0.17879
C          C       0.31604   0.02773   0.90877   0.17990
C          C       0.66531   0.41979   0.15321   0.42985
C          C       0.83808   0.96500   0.29732   0.19042
C          C       0.51487   0.39664   0.13711   0.43610
C          C       0.00778   0.04971   0.46783   0.42442
C          C       0.25573   0.23782   0.99242  -0.44111
C          C       0.81205   0.17747   0.42258  -0.44556
C          C       0.29011   0.15769   0.97121   0.19810
C          C       0.60261   0.28911   0.14366  -0.05819
C          C       0.65297   0.50111   0.14784  -0.06914
C          C       0.26702   0.08864   0.89693  -0.06162
C          C       0.09220   0.06853   0.67400   0.02468
C          C       0.06669   0.05900   0.54670  -0.07132
C          C       0.11968   0.07990   0.80543   0.43038
C          C       0.69230   0.33523   0.29371  -0.42292
C          C       0.50940   0.48346   0.14243  -0.07046
C          C       0.91402   0.04892   0.62750  -0.06505
C          C       0.97200   0.06185   0.70342  -0.06914
C          C       0.06005   0.07038   0.72640  -0.05186
C          C       0.64733   0.27375   0.20857   0.19279
C          C       0.24260   0.08256   0.77281   0.42781
C          C       0.18142   0.07634   0.69583  -0.05657
C          C       0.15498   0.06966   0.57054  -0.07205
C          C       0.87175   0.88462   0.27448  -0.43360
C          C       0.71694   0.54812   0.14715  -0.06967
C          C       0.52352   0.19077   0.99234  -0.42296
C          C       0.86011   0.03130   0.37261  -0.06253
C          C       0.03381   0.05816   0.59792   0.02471
C          C       0.88242   0.03129   0.49462   0.42133
C          C       0.94411   0.04672   0.57488  -0.07439
C          C       0.21219   0.07761   0.64469  -0.07989
C          C       0.43694   0.51671   0.14297  -0.07089
C          C       0.31640   0.94229   0.85041  -0.42694
C          C       0.50261   0.86622   0.07626   0.18797
C          C       0.56820   0.61305   0.14516   0.02211
C          C       0.54916   0.26796   0.36262   0.17858
C          C       0.59258   0.88086   0.90836   0.18064
C          C       0.48799   0.73314   0.15332   0.42844
C          C       0.45923   0.33209   0.29739   0.18908
C          C       0.62278   0.74073   0.13797   0.43507
C          C       0.46100   0.41745   0.46797   0.42363
C          C       0.73638   0.75455   0.99259  -0.44196
C          C       0.61079   0.24493   0.42267  -0.44449
C          C       0.68083   0.81347   0.97121   0.19756
C          C       0.54099   0.85437   0.14383  -0.05888
C          C       0.49485   0.64641   0.14778  -0.06917
C          C       0.62950   0.80794   0.89674  -0.06089
C          C       0.58206   0.60515   0.67387   0.02474
C          C       0.48048   0.48735   0.54658  -0.06910
C          C       0.68556   0.72511   0.80535   0.42997
C          C       0.60147   0.95783   0.29391  -0.42186
C          C       0.63326   0.65894   0.14285  -0.06918
C          C       0.71368   0.57824   0.62740  -0.06442
C          C       0.73156   0.64122   0.70328  -0.06900
C          C       0.66645   0.65569   0.72631  -0.05222
C          C       0.56117   0.93443   0.20876   0.19194
C          C       0.53028   0.68960   0.77281   0.42795
C          C       0.51467   0.61915   0.69574  -0.05552
C          C       0.41595   0.50087   0.57040  -0.07520
C          C       0.40280   0.38972   0.27446  -0.43310
C          C       0.43006   0.59864   0.14688  -0.06988
C          C       0.46890   0.80179   0.99246  -0.42269
C          C       0.51330   0.34130   0.37264  -0.06247
C          C       0.56441   0.53941   0.59781   0.02414
C          C       0.61290   0.46325   0.49462   0.42143
C          C       0.63117   0.52786   0.57484  -0.07528
C          C       0.43286   0.56703   0.64453  -0.07864
C          C       0.70625   0.62623   0.14340  -0.07185
C          C       0.53387   0.90787   0.84985  -0.42900
C          C       0.13352   0.42611   0.92342   0.18847
C          C       0.38693   0.42301   0.85487   0.02372
C          C       0.73204   0.18590   0.63707   0.17777
C          C       0.11926   0.68430   0.09187   0.18121
C          C       0.26674   0.33452   0.84640   0.42933
C          C       0.66803   0.16151   0.70255   0.18928
C          C       0.25943   0.48490   0.86241   0.43578
C          C       0.58256   0.99232   0.53180   0.42385
C          C       0.24520   0.74381   0.00728  -0.44351
C          C       0.75496   0.18759   0.57695  -0.44389
C          C       0.18625   0.70980   0.02874   0.19855
C          C       0.14547   0.39703   0.85589  -0.05794
C          C       0.35353   0.34699   0.85208  -0.06952
C          C       0.19193   0.73301   0.10330  -0.06147
C          C       0.39476   0.90797   0.32609   0.02554
C          C       0.51253   0.93349   0.45331  -0.07048
C          C       0.27508   0.88028   0.19446   0.43096
C          C       0.04221   0.30736   0.70584  -0.42223
C          C       0.34110   0.49046   0.85732  -0.07096
C          C       0.42139   0.08597   0.37247  -0.06520
C          C       0.35874   0.02799   0.29649  -0.06836
C          C       0.34436   0.93997   0.27353  -0.05300
C          C       0.06546   0.35222   0.79094   0.19270
C          C       0.31029   0.75758   0.22735   0.42822
C          C       0.38081   0.81882   0.30432  -0.05608
C          C       0.49921   0.84526   0.42960  -0.07261
C          C       0.61033   0.12812   0.72549  -0.43351
C          C       0.40132   0.28308   0.85293  -0.07020
C          C       0.19782   0.47629   0.00722  -0.42300
C          C       0.65898   0.13977   0.62720  -0.06172
C          C       0.46035   0.96632   0.40213   0.02432
C          C       0.53666   0.11769   0.50534   0.42161
C          C       0.47182   0.05599   0.42515  -0.07471
C          C       0.43304   0.78813   0.35557  -0.08005
C          C       0.37379   0.56292   0.85683  -0.07050
C          C       0.09226   0.68417   0.15043  -0.42839
C          C       0.79016   0.49737   0.92424   0.18782
C          C       0.46821   0.43176   0.85495   0.02208
C          C       0.90599   0.45077   0.63767   0.17936
C          C       0.97221   0.40682   0.09092   0.17914
C          C       0.58030   0.51204   0.84709   0.42983
C          C       0.03492   0.54092   0.70273   0.18906
C          C       0.60327   0.37729   0.86251   0.43440
C          C       0.95032   0.53902   0.53219   0.42444
C          C       0.76216   0.26324   0.00758  -0.44117
C          C       0.82298   0.38926   0.57790  -0.44540
C          C       0.84223   0.31876   0.02869   0.19785
C          C       0.71103   0.45904   0.85659  -0.05830
C          C       0.49894   0.50510   0.85237  -0.06889
C          C       0.91126   0.37002   0.10294  -0.06147
C          C       0.93146   0.41784   0.32596   0.02600
C          C       0.94100   0.51937   0.45333  -0.06939
C          C       0.92026   0.31431   0.19457   0.42978
C          C       0.66512   0.39866   0.70656  -0.42269
C          C       0.51648   0.36673   0.85735  -0.06836
C          C       0.95109   0.28616   0.37248  -0.06431
C          C       0.93823   0.26833   0.29656  -0.06878
C          C       0.92970   0.33345   0.27357  -0.05232
C          C       0.72656   0.43890   0.79175   0.19269
C          C       0.91737   0.46964   0.22710   0.42768
C          C       0.92365   0.48527   0.30412  -0.05645
C          C       0.93034   0.58386   0.42945  -0.07357
C          C       0.11526   0.59731   0.72544  -0.43268
C          C       0.45194   0.56982   0.85312  -0.07032
C          C       0.80918   0.53125   0.00799  -0.42171
C          C       0.96917   0.48668   0.62753  -0.06014
C          C       0.94183   0.43543   0.40207   0.02316
C          C       0.96879   0.38697   0.50532   0.42129
C          C       0.95326   0.36869   0.42507  -0.07487
C          C       0.92247   0.56704   0.35531  -0.07940
C          C       0.48323   0.29376   0.85679  -0.07230
C          C       0.05748   0.46563   0.14917  -0.42678
N          N       0.76561   0.06679   0.28478  -0.19731
N          N       0.78037   0.98758   0.24449  -0.20396
N          N       0.36688   0.05924   0.98689  -0.19873
N          N       0.59957   0.14904   0.09969  -0.20595
N          N       0.64457   0.18814   0.18065  -0.20389
N          N       0.35094   0.13870   0.02523  -0.20766
N          N       0.20795   0.08215   0.82258  -0.13874
N          N       0.59381   0.37093   0.14512  -0.15690
N          N       0.91836   0.03626   0.44653  -0.15124
N          N       0.51829   0.21716   0.28468  -0.19720
N          N       0.46326   0.25628   0.24450  -0.20383
N          N       0.62001   0.92775   0.98648  -0.20023
N          N       0.50023   0.95064   0.09989  -0.20650
N          N       0.53599   0.99219   0.18085  -0.20360
N          N       0.67410   0.88666   0.02509  -0.20652
N          N       0.61437   0.74001   0.82245  -0.13942
N          N       0.55142   0.77402   0.14530  -0.15485
N          N       0.52912   0.41012   0.44660  -0.15048
N          N       0.78255   0.23348   0.71496  -0.19727
N          N       0.74352   0.21884   0.75532  -0.20377
N          N       0.07235   0.63355   0.01380  -0.20134
N          N       0.04915   0.39988   0.89973  -0.20615
N          N       0.00763   0.35481   0.81877  -0.20411
N          N       0.11318   0.64918   0.97502  -0.20639
N          N       0.25996   0.79207   0.17748  -0.14006
N          N       0.22587   0.40600   0.85452  -0.15657
N          N       0.59000   0.08177   0.55332  -0.15144
N          N       0.93296   0.48177   0.71563  -0.19830
N          N       0.01194   0.53700   0.75571  -0.20389
N          N       0.94070   0.37945   0.01278  -0.19889
N          N       0.85117   0.49975   0.90080  -0.20516
N          N       0.81223   0.46390   0.81983  -0.20528
N          N       0.86118   0.32551   0.97457  -0.20656
N          N       0.91793   0.38542   0.17741  -0.13825
N          N       0.62915   0.44850   0.85497  -0.15671
N          N       0.96408   0.47088   0.55352  -0.15241
O          O       0.80377   0.01539   0.46963  -0.43031
O          O       0.45423   0.34834   0.12601  -0.42931
O          O       0.73307   0.39406   0.16367  -0.42819
O          O       0.32037   0.08675   0.79266  -0.44677
O          O       0.09534   0.08403   0.85358  -0.40726
O          O       0.03327   0.05290   0.42232  -0.42469
O          O       0.66664   0.45450   0.46966  -0.43080
O          O       0.67304   0.77847   0.12787  -0.42838
O          O       0.43074   0.76933   0.16393  -0.42801
O          O       0.47241   0.70480   0.79282  -0.44752
O          O       0.75779   0.76897   0.85365  -0.40636
O          O       0.39055   0.36810   0.42265  -0.42385
O          O       0.54556   0.19632   0.53027  -0.43094
O          O       0.22204   0.54548   0.87323  -0.42952
O          O       0.23061   0.26662   0.83567  -0.42773
O          O       0.29501   0.67987   0.20768  -0.44714
O          O       0.23144   0.90458   0.14621  -0.40709
O          O       0.63201   0.96677   0.57687  -0.42391
O          O       0.98463   0.33318   0.53025  -0.43059
O          O       0.65131   0.32729   0.87310  -0.42826
O          O       0.60612   0.56944   0.83679  -0.42827
O          O       0.91296   0.52749   0.20709  -0.44737
O          O       0.91617   0.24210   0.14633  -0.40686
O          O       0.94702   0.60977   0.57779  -0.42444

