data_crystal

_audit_creation_method 'AiiDA-DDEC plugin'

_cell_length_a         9.77324
_cell_length_b        16.67616
_cell_length_c        27.45140

_cell_angle_alpha     96.83936
_cell_angle_beta     89.87290
_cell_angle_gamma     89.76129

_symmetry_space_group_name_Hall 'P 1'
_symmetry_space_group_name_H-M  'P 1'

loop_
_symmetry_equiv_pos_as_xyz
 'x,y,z'

loop_
_atom_site_label
_atom_site_type_symbol
_atom_site_fract_x
_atom_site_fract_y
_atom_site_fract_z
_atom_site_charge
Gd         Gd      0.38312   0.30418   0.24426   2.09152
Gd         Gd      0.79669   0.48567   0.74904   2.10978
Gd         Gd      0.87668   0.19570   0.75404   2.09167
Gd         Gd      0.30296   0.01401   0.25107   2.11190
Gd         Gd      0.61689   0.69583   0.75574   2.09142
Gd         Gd      0.20330   0.51434   0.25096   2.10958
Gd         Gd      0.12333   0.80431   0.24596   2.09186
Gd         Gd      0.69705   0.98600   0.74893   2.11205
H          H       0.61364   0.36688   0.09845   0.09686
H          H       0.34965   0.57291   0.13393   0.11912
H          H       0.36412   0.59599   0.04416   0.11462
H          H       0.45038   0.62267   0.39081   0.09465
H          H       0.46884   0.36268   0.36994   0.11325
H          H       0.50668   0.36750   0.46173   0.12146
H          H       0.00311   0.43967   0.13952   0.09391
H          H       0.17320   0.20245   0.10067   0.11289
H          H       0.08498   0.20817   0.01391   0.11897
H          H       0.01682   0.23583   0.87242   0.08478
H          H       0.87057   0.47914   0.90796   0.11102
H          H       0.89166   0.45980   0.99727   0.12519
H          H       0.13022   0.23792   0.61082   0.09887
H          H       0.82504   0.42604   0.62102   0.10824
H          H       0.86292   0.43445   0.53043   0.12582
H          H       0.16855   0.23606   0.46324   0.12143
H          H       0.21809   0.24816   0.37379   0.11392
H          H       0.96227   0.46012   0.38755   0.09545
H          H       0.10831   0.13223   0.90039   0.09650
H          H       0.84281   0.92785   0.86727   0.11850
H          H       0.86125   0.90506   0.95689   0.11411
H          H       0.94481   0.87755   0.60895   0.09312
H          H       0.96807   0.13734   0.63009   0.11301
H          H       0.00763   0.13226   0.53835   0.12155
H          H       0.49564   0.06268   0.85979   0.09420
H          H       0.67031   0.29778   0.89810   0.11165
H          H       0.58726   0.29175   0.98556   0.11773
H          H       0.52368   0.26261   0.12746   0.08398
H          H       0.37586   0.02046   0.09169   0.11116
H          H       0.39288   0.04124   0.00246   0.12351
H          H       0.63562   0.26132   0.38696   0.09953
H          H       0.32857   0.07596   0.37696   0.10741
H          H       0.36414   0.06761   0.46767   0.12652
H          H       0.66759   0.26471   0.53513   0.12075
H          H       0.71555   0.25187   0.62449   0.11377
H          H       0.46187   0.04033   0.61005   0.09418
H          H       0.38636   0.63313   0.90155   0.09705
H          H       0.65035   0.42709   0.86607   0.11892
H          H       0.63588   0.40402   0.95584   0.11456
H          H       0.54963   0.37734   0.60919   0.09438
H          H       0.53116   0.63733   0.63006   0.11356
H          H       0.49332   0.63251   0.53827   0.12171
H          H      -0.00311   0.56034   0.86049   0.09365
H          H       0.82681   0.79756   0.89933   0.11306
H          H       0.91502   0.79184   0.98609   0.11926
H          H       0.98318   0.76418   0.12759   0.08518
H          H       0.12943   0.52087   0.09204   0.11071
H          H       0.10834   0.54021   0.00273   0.12503
H          H       0.86978   0.76209   0.38918   0.09898
H          H       0.17496   0.57397   0.37898   0.10813
H          H       0.13708   0.56556   0.46957   0.12563
H          H       0.83145   0.76396   0.53676   0.12162
H          H       0.78191   0.75185   0.62621   0.11406
H          H       0.03774   0.53989   0.61245   0.09527
H          H       0.89170   0.86779   0.09962   0.09614
H          H       0.15721   0.07217   0.13273   0.11867
H          H       0.13875   0.09496   0.04311   0.11447
H          H       0.05520   0.12246   0.39105   0.09341
H          H       0.03193   0.86267   0.36991   0.11258
H          H       0.99237   0.86775   0.46165   0.12105
H          H       0.50436   0.93733   0.14022   0.09458
H          H       0.32970   0.70222   0.10191   0.11135
H          H       0.41274   0.70826   0.01444   0.11745
H          H       0.47633   0.73740   0.87254   0.08361
H          H       0.62415   0.97954   0.90832   0.11150
H          H       0.60712   0.95877   0.99754   0.12383
H          H       0.36439   0.73869   0.61305   0.09926
H          H       0.67143   0.92406   0.62305   0.10773
H          H       0.63586   0.93240   0.53233   0.12680
H          H       0.33241   0.73530   0.46488   0.12046
H          H       0.28446   0.74813   0.37551   0.11349
H          H       0.53813   0.95967   0.38995   0.09449
C          C       0.49662   0.49422   0.02629   0.17693
C          C       0.55668   0.41833   0.08796   0.09004
C          C       0.47758   0.46709   0.12273  -0.09784
C          C       0.41012   0.53409   0.10738  -0.04275
C          C       0.41852   0.54730   0.05864  -0.16252
C          C       0.45209   0.44839   0.17371   0.65718
C          C       0.49313   0.49742   0.47303   0.17893
C          C       0.46199   0.56524   0.40566   0.08515
C          C       0.45523   0.49252   0.37397  -0.09562
C          C       0.47334   0.41966   0.39384  -0.04774
C          C       0.49316   0.42200   0.44406  -0.15151
C          C       0.41227   0.49406   0.32249   0.62147
C          C       0.00575   0.32881   0.03234   0.18180
C          C       0.02335   0.38756   0.11248   0.08520
C          C       0.09711   0.32137   0.12605  -0.09648
C          C       0.11710   0.25440   0.09063  -0.03945
C          C       0.07007   0.25752   0.04324  -0.15103
C          C       0.16372   0.32241   0.17449   0.63499
C          C       0.97407   0.33955   0.98072   0.17434
C          C       0.99237   0.28725   0.89937   0.08350
C          C       0.94720   0.35972   0.88321  -0.10466
C          C       0.90918   0.42295   0.91891  -0.03987
C          C       0.92062   0.41261   0.96827  -0.15329
C          C       0.93726   0.36629   0.82964   0.66847
C          C       0.01502   0.33995   0.52430   0.17777
C          C       0.06869   0.28181   0.59401   0.08426
C          C       0.97377   0.33044   0.62269  -0.10538
C          C       0.89902   0.38737   0.59980  -0.04759
C          C       0.91901   0.39197   0.55002  -0.14400
C          C       0.94774   0.31796   0.67477   0.66000
C          C       0.04072   0.34262   0.47119   0.17870
C          C       0.12557   0.28446   0.44471  -0.15386
C          C       0.15267   0.29140   0.39571  -0.04404
C          C       0.09676   0.35653   0.37434  -0.09914
C          C       0.00961   0.40990   0.40334   0.08359
C          C       0.13550   0.37034   0.32345   0.65940
C          C       0.99492   0.00585   0.97372   0.17695
C          C       0.05188   0.08122   0.91143   0.08903
C          C       0.97136   0.03299   0.87720  -0.09654
C          C       0.90443   0.96659   0.89323  -0.04372
C          C       0.91497   0.95342   0.94195  -0.16246
C          C       0.94483   0.05175   0.82620   0.65576
C          C       0.99227   0.00254   0.52695   0.17930
C          C       0.95799   0.93485   0.59414   0.08651
C          C       0.95201   0.00750   0.62589  -0.09760
C          C       0.97200   0.08033   0.60619  -0.04669
C          C       0.99293   0.07786   0.55598  -0.15196
C          C       0.90874   0.00600   0.67737   0.62663
C          C       0.50570   0.17201   0.96732   0.18302
C          C       0.51801   0.11435   0.88675   0.08385
C          C       0.59154   0.18008   0.87282  -0.09509
C          C       0.61428   0.24625   0.90843  -0.04019
C          C       0.57016   0.24287   0.95621  -0.14866
C          C       0.65530   0.17871   0.82374   0.63571
C          C       0.47655   0.16070   0.01907   0.17274
C          C       0.49803   0.21171   0.10044   0.08429
C          C       0.45307   0.13936   0.11656  -0.10685
C          C       0.41375   0.07674   0.08084  -0.04048
C          C       0.42334   0.08775   0.03149  -0.15122
C          C       0.44463   0.13260   0.17018   0.67058
C          C       0.51714   0.16097   0.47369   0.17769
C          C       0.57332   0.21813   0.40391   0.08349
C          C       0.47887   0.16989   0.37525  -0.10604
C          C       0.40273   0.11388   0.39820  -0.04783
C          C       0.42135   0.10943   0.44801  -0.14426
C          C       0.45361   0.18222   0.32321   0.66001
C          C       0.54144   0.15821   0.52679   0.17699
C          C       0.62503   0.21614   0.55350  -0.15300
C          C       0.65116   0.20870   0.60246  -0.04267
C          C       0.59532   0.14341   0.62354  -0.09978
C          C       0.50924   0.09044   0.59431   0.08447
C          C       0.63248   0.12933   0.67452   0.65900
C          C       0.50338   0.50578   0.97371   0.17698
C          C       0.44332   0.58168   0.91205   0.09006
C          C       0.52242   0.53292   0.87727  -0.09774
C          C       0.58989   0.46592   0.89262  -0.04300
C          C       0.58149   0.45271   0.94136  -0.16286
C          C       0.54790   0.55163   0.82629   0.65718
C          C       0.50687   0.50259   0.52697   0.17953
C          C       0.53801   0.43477   0.59434   0.08511
C          C       0.54477   0.50749   0.62603  -0.09573
C          C       0.52666   0.58035   0.60616  -0.04762
C          C       0.50685   0.57801   0.55594  -0.15141
C          C       0.58774   0.50595   0.67752   0.62161
C          C       0.99426   0.67120   0.96766   0.18215
C          C       0.97666   0.61244   0.88752   0.08505
C          C       0.90289   0.67863   0.87395  -0.09639
C          C       0.88290   0.74560   0.90937  -0.03920
C          C       0.92992   0.74249   0.95676  -0.15100
C          C       0.83627   0.67759   0.82551   0.63471
C          C       0.02593   0.66047   0.01928   0.17410
C          C       0.00764   0.71276   0.10063   0.08365
C          C       0.05280   0.64029   0.11680  -0.10482
C          C       0.09082   0.57706   0.08110  -0.03984
C          C       0.07938   0.58740   0.03173  -0.15355
C          C       0.06275   0.63372   0.17036   0.66858
C          C       0.98499   0.66006   0.47570   0.17774
C          C       0.93131   0.71820   0.40599   0.08445
C          C       0.02623   0.66957   0.37731  -0.10578
C          C       0.10098   0.61264   0.40021  -0.04761
C          C       0.08099   0.60804   0.44998  -0.14407
C          C       0.05226   0.68205   0.32523   0.65995
C          C       0.95929   0.65739   0.52881   0.17871
C          C       0.87444   0.71556   0.55529  -0.15387
C          C       0.84733   0.70861   0.60429  -0.04381
C          C       0.90324   0.64348   0.62566  -0.09915
C          C       0.99039   0.59011   0.59666   0.08357
C          C       0.86450   0.62966   0.67655   0.65955
C          C       0.00508   0.99416   0.02628   0.17690
C          C       0.94814   0.91880   0.08857   0.08893
C          C       0.02866   0.96703   0.12280  -0.09626
C          C       0.09559   0.03343   0.10677  -0.04342
C          C       0.08504   0.04660   0.05805  -0.16242
C          C       0.05517   0.94827   0.17380   0.65569
C          C       0.00773   0.99747   0.47305   0.17905
C          C       0.04202   0.06516   0.40586   0.08659
C          C       0.04800   0.99251   0.37411  -0.09769
C          C       0.02800   0.91968   0.39381  -0.04664
C          C       0.00708   0.92215   0.44402  -0.15194
C          C       0.09126   0.99401   0.32263   0.62643
C          C       0.49430   0.82800   0.03268   0.18263
C          C       0.48199   0.88566   0.11325   0.08379
C          C       0.40847   0.81993   0.12718  -0.09519
C          C       0.38572   0.75376   0.09157  -0.04016
C          C       0.42984   0.75714   0.04379  -0.14880
C          C       0.34471   0.82130   0.17626   0.63613
C          C       0.52346   0.83931   0.98094   0.17331
C          C       0.50198   0.78830   0.89956   0.08421
C          C       0.54693   0.86065   0.88344  -0.10670
C          C       0.58625   0.92327   0.91916  -0.04028
C          C       0.57666   0.91226   0.96851  -0.15137
C          C       0.55538   0.86742   0.82983   0.67018
C          C       0.48287   0.83904   0.52631   0.17797
C          C       0.42669   0.78188   0.59610   0.08338
C          C       0.52114   0.83012   0.62475  -0.10606
C          C       0.59728   0.88613   0.60181  -0.04758
C          C       0.57866   0.89058   0.55200  -0.14428
C          C       0.54640   0.81778   0.67680   0.66058
C          C       0.45856   0.84180   0.47322   0.17697
C          C       0.37498   0.78387   0.44650  -0.15310
C          C       0.34884   0.79131   0.39754  -0.04292
C          C       0.40469   0.85660   0.37646  -0.09955
C          C       0.49076   0.90957   0.40569   0.08433
C          C       0.36752   0.87068   0.32548   0.65846
N          N       0.56731   0.43138   0.04090  -0.27690
N          N       0.47986   0.56834   0.45398  -0.28079
N          N       0.97881   0.39195   0.06680  -0.28282
N          N       0.00697   0.27699   0.94655  -0.27974
N          N       0.08970   0.28594   0.54627  -0.28095
N          N       0.98089   0.40345   0.45039  -0.28337
N          N       0.06474   0.06822   0.95841  -0.27686
N          N       0.97712   0.93166   0.54585  -0.27997
N          N       0.47612   0.10976   0.93276  -0.28373
N          N       0.51136   0.22249   0.05328  -0.27942
N          N       0.59290   0.21430   0.45173  -0.28068
N          N       0.48155   0.09730   0.54729  -0.28249
N          N       0.43269   0.56863   0.95910  -0.27660
N          N       0.52014   0.43167   0.54602  -0.28162
N          N       0.02119   0.60806   0.93320  -0.28336
N          N       0.99303   0.72302   0.05345  -0.27922
N          N       0.91030   0.71407   0.45373  -0.28060
N          N       0.01911   0.59656   0.54961  -0.28370
N          N       0.93527   0.93180   0.04159  -0.27748
N          N       0.02288   0.06835   0.45415  -0.27924
N          N       0.52388   0.89025   0.06724  -0.28303
N          N       0.48866   0.77751   0.94672  -0.28011
N          N       0.40710   0.78571   0.54828  -0.28129
N          N       0.51845   0.90271   0.45271  -0.28197
O          O       0.40731   0.42807   0.29288  -0.75163
O          O       0.21587   0.25713   0.18597  -0.61849
O          O       0.19890   0.31326   0.29751  -0.67082
O          O       0.48180   0.37816   0.18543  -0.67259
O          O       0.97314   0.30541   0.79975  -0.68910
O          O       0.98106   0.24957   0.68820  -0.65883
O          O       0.89341   0.43285   0.81636  -0.68814
O          O       0.17736   0.38942   0.20279  -0.76202
O          O       0.39418   0.50410   0.20255  -0.67425
O          O       0.36796   0.56035   0.30964  -0.60515
O          O       0.10739   0.43936   0.30942  -0.69016
O          O       0.88776   0.37331   0.70314  -0.71076
O          O       0.90626   0.07186   0.70712  -0.74999
O          O       0.70732   0.24349   0.81181  -0.61534
O          O       0.69344   0.18662   0.70073  -0.67152
O          O       0.97389   0.12188   0.81442  -0.66985
O          O       0.48143   0.19315   0.20005  -0.68901
O          O       0.48752   0.25029   0.30969  -0.65623
O          O       0.39991   0.06655   0.18357  -0.68673
O          O       0.66672   0.11153   0.79526  -0.76444
O          O       0.88702   0.99608   0.79757  -0.67688
O          O       0.86251   0.94026   0.69017  -0.61014
O          O       0.60600   0.06011   0.68838  -0.69066
O          O       0.39364   0.12704   0.29498  -0.71191
O          O       0.59269   0.57193   0.70712  -0.75130
O          O       0.78416   0.74289   0.81403  -0.61774
O          O       0.80110   0.68675   0.70249  -0.67031
O          O       0.51819   0.62184   0.81457  -0.67201
O          O       0.02687   0.69460   0.20025  -0.68889
O          O       0.01894   0.75045   0.31181  -0.65836
O          O       0.10659   0.56716   0.18364  -0.68865
O          O       0.82256   0.61059   0.79720  -0.76236
O          O       0.60581   0.49591   0.79745  -0.67488
O          O       0.63204   0.43966   0.69036  -0.60577
O          O       0.89260   0.56065   0.69058  -0.69063
O          O       0.11224   0.62669   0.29686  -0.71101
O          O       0.09374   0.92815   0.29288  -0.75042
O          O       0.29269   0.75652   0.18819  -0.61616
O          O       0.30656   0.81339   0.29927  -0.67176
O          O       0.02612   0.87813   0.18558  -0.67071
O          O       0.51858   0.80688   0.79995  -0.68927
O          O       0.51249   0.74973   0.69031  -0.65697
O          O       0.60010   0.93346   0.81643  -0.68605
O          O       0.33328   0.88848   0.20474  -0.76418
O          O       0.11297   0.00394   0.20244  -0.67614
O          O       0.13750   0.05975   0.30983  -0.60936
O          O       0.39402   0.93990   0.31162  -0.68998
O          O       0.60637   0.87296   0.70502  -0.71184

