data_crystal

_audit_creation_method 'AiiDA-DDEC plugin'

_cell_length_a         8.40375
_cell_length_b        23.70764
_cell_length_c        23.74499

_cell_angle_alpha     88.41290
_cell_angle_beta     80.01246
_cell_angle_gamma     79.89473

_symmetry_space_group_name_Hall 'P 1'
_symmetry_space_group_name_H-M  'P 1'

loop_
_symmetry_equiv_pos_as_xyz
 'x,y,z'

loop_
_atom_site_label
_atom_site_type_symbol
_atom_site_fract_x
_atom_site_fract_y
_atom_site_fract_z
_atom_site_charge
Zn         Zn      0.78865   0.06068   0.95039   1.00636
Zn         Zn      0.14618   0.04776   0.06120   1.00614
Zn         Zn      0.80584   0.93897   0.04684   1.00358
Zn         Zn      0.25036   0.50147   0.49883   0.96319
Zn         Zn      0.25880   0.95257   0.93849   1.00734
Zn         Zn      0.49831   0.00103   0.00100   1.03713
H          H       0.38906   0.99516   0.72645   0.11597
H          H       0.42336   0.89693   0.37574   0.13636
H          H       0.47985   0.96237   0.20063   0.11553
H          H       0.58079   0.02153   0.18013   0.11383
H          H       0.32696   0.81957   0.60991   0.12991
H          H       0.87954   0.01490   0.73020   0.11649
H          H       0.31943   0.20225   0.03569   0.11612
H          H       0.78568   0.32089   0.49859   0.10842
H          H       0.10796   0.00514   0.27395   0.11542
H          H       0.14663   0.50216   0.25031   0.11247
H          H       0.16454   0.97546   0.79166   0.11423
H          H       0.69277   0.00278   0.36369   0.10142
H          H       0.85277   0.63612   0.84928   0.13767
H          H       0.89281   0.50247   0.31950   0.10801
H          H       0.22217   0.04288   0.46979   0.12607
H          H       0.87970   0.50554   0.11120   0.11292
H          H       0.25565   0.13002   0.40182   0.10085
H          H       0.70673   0.18545   0.02449   0.11363
H          H       0.89841   0.49782   0.75012   0.11373
H          H       0.61987   0.50683   0.18091   0.12616
H          H       0.50661   0.30639   0.88489   0.13255
H          H       0.51100   0.15196   0.63564   0.13717
H          H       0.18561   0.11249   0.30684   0.13319
H          H       0.01297   0.11282   0.49410   0.11361
H          H       0.81901   0.63146   0.50231   0.10535
H          H       0.00891   0.34953   0.55952   0.11255
H          H       0.60734   0.88594   0.69396   0.13270
H          H       0.68028   0.13039   0.35234   0.13592
H          H       0.62231   0.98420   0.27028   0.11589
H          H       0.81139   0.87323   0.31085   0.13279
H          H       0.18358   0.99303   0.36973   0.10154
H          H       0.35142   0.74933   0.50284   0.11321
H          H       0.61527   0.88850   0.50564   0.11322
H          H       0.73182   0.46125   0.01861   0.12613
H          H       0.67651   0.50574   0.36790   0.10417
H          H       0.61707   0.27356   0.99301   0.11628
H          H       0.02852   0.62043   0.10933   0.13482
H          H       0.55360   0.49128   0.62964   0.10477
H          H       0.87415   0.81851   0.50680   0.12587
H          H       0.14570   0.47744   0.01470   0.13290
H          H       0.49287   0.49454   0.88715   0.11318
H          H       0.95426   0.37084   0.49172   0.10351
H          H       0.16009   0.13739   0.59079   0.10090
H          H       0.46292   0.82584   0.40141   0.12647
H          H       0.69347   0.17440   0.59926   0.12626
H          H       0.20115   0.37490   0.10269   0.13651
H          H       0.85168   0.39019   0.81930   0.13019
H          H       0.92127   0.81467   0.97605   0.11627
H          H       0.16274   0.86933   0.64817   0.13541
H          H       0.54920   0.00725   0.63113   0.10161
H          H       0.13714   0.40080   0.17375   0.12657
H          H       0.88515   0.86225   0.40830   0.10421
H          H       0.05087   0.79385   0.02706   0.11556
H          H       0.80723   0.98113   0.46116   0.12649
H          H       0.86352   0.20664   0.97276   0.11444
H          H       0.43424   0.55949   0.65155   0.11413
H          H       0.61509   0.59970   0.13183   0.10159
H          H       0.60505   0.67987   0.50327   0.10821
H          H       0.70760   0.59928   0.82627   0.12618
H          H       0.73551   0.53131   0.04268   0.12667
H          H       0.81816   0.63212   0.99289   0.10251
H          H       0.26908   0.02705   0.81427   0.11571
H          H       0.39287   0.82159   0.02318   0.11285
H          H       0.88511   0.72737   0.00621   0.11713
H          H       0.31629   0.68813   0.87649   0.13291
H          H       0.69822   0.10344   0.62526   0.13715
H          H       0.65313   0.03649   0.80005   0.11533
H          H       0.19092   0.64827   0.13079   0.13677
H          H       0.69882   0.69530   0.11481   0.13359
H          H       0.92919   0.02490   0.20833   0.11375
H          H       0.55061   0.79850   0.96430   0.11614
H          H       0.30684   0.49301   0.81598   0.12688
H          H       0.25052   0.59108   0.86446   0.10311
H          H       0.75786   0.18015   0.39062   0.13080
H          H       0.63721   0.52266   0.98506   0.13298
H          H       0.30721   0.63578   0.00352   0.10083
H          H       0.06433   0.61009   0.18027   0.13022
H          H       0.71695   0.49722   0.67951   0.10798
H          H       0.63551   0.43934   0.34543   0.11349
H          H       0.29501   0.84845   0.36453   0.13656
H          H      -0.00127   0.12649   0.68783   0.13360
H          H       0.37750   0.98487   0.47714   0.13359
H          H       0.10907   0.27041   0.01407   0.11610
H          H       0.23740   0.18020   0.97752   0.11377
H          H       0.75565   0.37950   0.89003   0.13370
H          H       0.05939   0.99664   0.63658   0.10125
H          H       0.86472   0.10921   0.37971   0.13434
H          H       0.70798   0.40872   0.13593   0.10560
H          H       0.88072   0.31149   0.12373   0.13228
H          H       0.25271   0.01838   0.53918   0.12737
H          H       0.78746   0.86863   0.59886   0.10151
H          H       0.34160   0.36421   0.15075   0.13694
H          H       0.10743   0.97381   0.18512   0.11431
H          H       0.83968   0.01504   0.52269   0.13431
H          H       0.60336   0.25039   0.49897   0.11143
H          H       0.39196   0.72984   0.98563   0.11590
H          H       0.34253   0.40159   0.86808   0.10126
H          H       0.20891   0.53967   0.98177   0.12651
H          H       0.30839   0.47017   0.95687   0.12637
H          H       0.44390   0.36905   0.00652   0.10224
H          H       0.94633   0.36403   0.99632   0.10163
H          H       0.78756   0.97601   0.82067   0.11349
H          H       0.67586   0.62530   0.89729   0.13683
H          H       0.92750   0.65573   0.43740   0.11379
H          H       0.96705   0.35208   0.86893   0.13575
H          H       0.35292   0.89051   0.62067   0.13470
H          H       0.73348   0.95728   0.53092   0.12620
H          H       0.20058   0.18389   0.49265   0.12635
C          C      -0.00263   0.93329   0.50358   0.08176
C          C       0.30665   0.86414   0.50385  -0.07726
C          C       0.46846   0.08545   0.54857  -0.06034
C          C       0.80666   0.90097   0.62746  -0.12545
C          C       0.14858   0.01994   0.80676  -0.12858
C          C       0.02811   0.60476   0.92738   0.06727
C          C       0.97259   0.98062   0.19270  -0.12584
C          C       0.73198   0.95115   0.71801   0.25011
C          C       0.00660   0.25677   0.49477   0.23265
C          C       0.06940   0.35201   0.97190  -0.10849
C          C       0.91038   0.44409   0.88209   0.08656
C          C       0.49953   0.50346   0.06662   0.08024
C          C       0.54165   0.01634   0.29858  -0.22980
C          C       0.76981   0.60532   0.86195  -0.42302
C          C       0.43148   0.51308   0.65088  -0.04588
C          C       0.70955   0.49587   0.82369   0.07649
C          C       0.29359   0.45115   0.11942   0.08332
C          C       0.79451   0.17650   0.49611   0.07899
C          C       0.42772   0.50150   0.38427   0.13614
C          C       0.96541   0.69805   0.97495  -0.23056
C          C       0.48029   0.06791   0.38961   0.06973
C          C       0.31858   0.28223   0.94983   0.24824
C          C       0.07015   0.61420   0.49964   0.12892
C          C       0.29530   0.08853   0.32028  -0.19543
C          C       0.44911   0.45148   0.08512  -0.05836
C          C       0.38431   0.32001   0.90922  -0.19439
C          C       0.73593   0.50619   0.19560  -0.19787
C          C       0.93412   0.89346   0.37882  -0.12690
C          C       0.05049   0.91642   0.55577  -0.06199
C          C       0.03168   0.44472   0.91624  -0.06047
C          C       0.20823   0.67493   0.90173  -0.19866
C          C       0.56172   0.39569   0.07255   0.06671
C          C       0.65975   0.50427   0.02660  -0.42677
C          C       0.05882   0.97369   0.30286  -0.23029
C          C       0.82619   0.49662   0.86434  -0.07751
C          C       0.24035   0.39491   0.13809  -0.42134
C          C       0.68807   0.37904   0.10475  -0.12984
C          C       0.29186   0.37302   0.90028  -0.12661
C          C       0.85872   0.98277   0.70183  -0.23176
C          C       0.31720   0.50046   0.61214   0.12841
C          C       0.89229   0.89921   0.32457  -0.19824
C          C       0.74121   0.13543   0.38861  -0.42171
C          C       0.78488   0.32499   0.09833  -0.19592
C          C       0.44128   0.70182   0.01775  -0.23592
C          C       0.18924   0.49649   0.97335  -0.42675
C          C       0.73422   0.23552   0.49754  -0.11181
C          C       0.88693   0.50348   0.27415  -0.23481
C          C       0.86077   0.54917   0.88071   0.08701
C          C       0.21008   0.10634   0.62059  -0.12251
C          C       0.61436   0.68127   0.09052  -0.19817
C          C       0.42838   0.03342   0.64304  -0.11035
C          C       0.75864   0.80385   0.50631  -0.19642
C          C       0.36762   0.07357   0.60420   0.06582
C          C       0.92809   0.64384   0.96733  -0.11114
C          C       0.23945   0.55620   0.11789   0.08710
C          C       0.54201   0.49446   0.84161  -0.11396
C          C       0.10441   0.71403   0.94112   0.24997
C          C       0.39392   0.64823   0.02791  -0.10611
C          C       0.18322   0.38808   0.49903   0.12719
C          C       0.43697   0.49369   0.80210  -0.19945
C          C       0.96370   0.15846   0.49436  -0.11792
C          C       0.83799   0.27560   0.49725  -0.23723
C          C       0.59310   0.48624   0.34616  -0.04471
C          C       0.75837   0.28617   0.05865   0.24728
C          C       0.76879   0.49671   0.76481  -0.11332
C          C       0.03147   0.50324   0.23482  -0.11408
C          C       0.10124   0.96673   0.35738  -0.11135
C          C       0.04184   0.92637   0.39591   0.06406
C          C       0.04968   0.80785   0.98249  -0.13196
C          C       0.18411   0.06115   0.71348   0.24621
C          C       0.87031   0.38837   0.86395  -0.42003
C          C       0.25528   0.88013   0.45146   0.08521
C          C       0.43672   0.06636   0.49673   0.08184
C          C       0.52661   0.81272   0.00918  -0.12258
C          C       0.92219   0.65345   0.48423  -0.04735
C          C       0.91792   0.97456   0.13579   0.59987
C          C       0.63760   0.30262   0.02454  -0.22991
C          C       0.17045   0.62098   0.89539  -0.12562
C          C       0.49900   0.49437   0.74341   0.23069
C          C       0.13158   0.38971   0.93080   0.06750
C          C       0.62478   0.13887   0.60513  -0.42293
C          C       0.16123   0.29865   0.98196  -0.23164
C          C       0.39492   0.55571   0.08384  -0.06081
C          C       0.46435   0.82393   0.50451   0.07993
C          C       0.33790   0.02648   0.69726  -0.22976
C          C       0.03199   0.50420   0.17575   0.07984
C          C       0.06958   0.19794   0.49366  -0.19670
C          C       0.59244   0.86833   0.01231   0.61110
C          C       0.03083   0.02642   0.86327   0.59889
C          C       0.88194   0.50557   0.15689  -0.11676
C          C       0.35042   0.18843   0.99066  -0.12263
C          C       0.93705   0.93133   0.61078   0.06991
C          C       0.61310   0.84273   0.50575  -0.11663
C          C       0.11038   0.86464   0.97428   0.59987
C          C       0.05604   0.34970   0.51308  -0.04278
C          C       0.12571   0.61184   0.13572  -0.42245
C          C       0.61003   0.72531   0.50402  -0.23373
C          C       0.66548   0.49630   0.72469  -0.23509
C          C       0.06718   0.49705   0.93345   0.08052
C          C       0.94455   0.13555   0.02479   0.60016
C          C       0.58082   0.02685   0.35181  -0.10932
C          C       0.55005   0.71878   0.04990   0.24865
C          C       0.75702   0.74489   0.50569   0.23171
C          C       0.54272   0.98685   0.86811   0.60790
C          C       0.73824   0.50542   0.25447   0.23256
C          C       0.96003   0.97241   0.64853  -0.10810
C          C       0.20542   0.88218   0.55633   0.08758
C          C       0.95670   0.93887   0.28592   0.24727
C          C       0.83610   0.97333   0.50420  -0.42938
C          C       0.66225   0.99113   0.81249  -0.12116
C          C       0.46567   0.76476   0.50374  -0.11483
C          C       0.33543   0.09789   0.37314  -0.12619
C          C       0.64610   0.11746   0.44413   0.08758
C          C       0.53982   0.35695   0.03224  -0.11103
C          C       0.98294   0.54896   0.91499  -0.06058
C          C       0.36498   0.86138   0.39542  -0.42188
C          C       0.09907   0.91434   0.45172  -0.05931
C          C       0.39943   0.04799   0.28241   0.24617
C          C       0.83465   0.19234   0.01733  -0.12502
C          C       0.52488   0.08306   0.44458  -0.06202
C          C       0.59006   0.11983   0.54896   0.08619
C          C       0.47265   0.13231   0.98654   0.60710
C          C       0.26403   0.86428   0.61185  -0.42052
C          C       0.19029   0.50361   0.13568  -0.07631
C          C       0.56703   0.62805   0.09959  -0.12492
C          C       0.46053   0.00778   0.18804  -0.12234
C          C       0.11921   0.10064   0.67454  -0.20028
C          C       0.39285   0.01287   0.13210   0.60769
C          C       0.31527   0.02646   0.49610  -0.42903
C          C       0.67732   0.13578   0.49663  -0.07720
C          C       0.45375   0.61085   0.06914   0.06768
C          C       0.70566   0.91025   0.68039  -0.19744
O          O       0.34937   0.04274   0.23128  -0.16885
O          O       0.06251   0.99132   0.90283  -0.56669
O          O       0.90417   0.06539   0.86874  -0.51247
O          O       0.43623   0.95473   0.86883  -0.53527
O          O       0.34191   0.52249   0.56348  -0.37934
O          O       0.85794   0.23376   0.05669  -0.17043
O          O       0.41898   0.23090   0.95466  -0.17019
O          O       0.08675   0.05975   0.76590  -0.16901
O          O       0.03378   0.13102   0.06329  -0.51196
O          O       0.38786   0.49172   0.70685  -0.19971
O          O       0.56277   0.01717   0.90852  -0.54991
O          O       0.72774   0.00026  -0.00008  -0.86265
O          O       0.58720   0.50822   0.29020  -0.20168
O          O       0.70195   0.86881   0.04303  -0.53643
O          O       0.27097   0.00025   0.00015  -0.86865
O          O       0.84091   0.93442   0.12887  -0.51072
O          O       0.12008   0.29341   0.49184  -0.19973
O          O       0.48377   0.98290   0.09169  -0.54705
O          O       0.94534   0.09465   0.99132  -0.56515
O          O       0.25539   0.04511   0.13127  -0.53473
O          O       0.42230   0.47996   0.43312  -0.38047
O          O       0.42168   0.09236   0.01708  -0.54587
O          O       0.15137   0.76626   0.94311  -0.16989
O          O       0.14173   0.43650   0.52230  -0.38155
O          O       0.90519   0.70879   0.50840  -0.20156
O          O       0.10320   0.56677   0.47435  -0.37987
O          O       0.95010   0.01114   0.09728  -0.56687
O          O       0.03986   0.90535   0.00846  -0.56673
O          O       0.61082   0.13106   0.95439  -0.53500
O          O       0.23017   0.86946   0.93473  -0.51077
O          O       0.62603   0.95704   0.76895  -0.17120
O          O       0.91136   0.94018   0.23311  -0.17310
O          O       0.53088   0.90876   0.98268  -0.54590
O          O       0.60248   0.77044   0.04514  -0.16839

