data_crystal

_audit_creation_method 'AiiDA-DDEC plugin'

_cell_length_a        11.06158
_cell_length_b        17.09461
_cell_length_c        23.10845

_cell_angle_alpha     107.78910
_cell_angle_beta     89.61930
_cell_angle_gamma     110.11615

_symmetry_space_group_name_Hall 'P 1'
_symmetry_space_group_name_H-M  'P 1'

loop_
_symmetry_equiv_pos_as_xyz
 'x,y,z'

loop_
_atom_site_label
_atom_site_type_symbol
_atom_site_fract_x
_atom_site_fract_y
_atom_site_fract_z
_atom_site_charge
Zn         Zn      0.39295   0.00069   0.25056   0.65476
Zn         Zn      0.10402  -0.00170   0.24952   0.63213
Zn         Zn      0.60704  -0.00069   0.74944   0.65483
Zn         Zn      0.89597   0.00170   0.75048   0.63214
Ag         Ag      0.72431   0.67666   0.70224   0.43601
Ag         Ag      0.05423   0.32541   0.79737   0.43545
Ag         Ag      0.27568   0.32334   0.29776   0.43723
Ag         Ag      0.94576   0.67458   0.20263   0.43614
H          H       0.71662   0.36534   0.56188   0.11608
H          H       0.40303   0.42487   0.49826   0.11518
H          H       0.66268   0.23235   0.47020   0.11686
H          H       0.35122   0.29239   0.40735   0.09048
H          H       0.47258   0.10874   0.48182   0.10906
H          H       0.53499   0.32989   0.33360   0.13173
H          H       0.47541   0.94408   0.44560   0.11642
H          H       0.47511   0.89637   0.32148   0.09726
H          H       0.43406   0.28299   0.21560   0.13208
H          H       0.02973   0.29516   0.30483   0.12884
H          H       0.09834   0.28494   0.41403   0.12073
H          H       0.03388   0.14469   0.21815   0.10129
H          H       0.31394   0.15157   0.09676   0.11443
H          H       0.12541   0.00474   0.02796   0.12366
H          H       0.94292   0.18346   0.45428   0.12255
H          H       0.29098   0.14345   0.49476   0.11149
H          H       0.95250   0.26997   0.56294   0.11397
H          H       0.29877   0.22654   0.60411   0.12343
H          H       0.35906   0.64091   0.94109   0.11495
H          H       0.97593   0.57349  -0.00089   0.11563
H          H       0.43557   0.77382   0.03291   0.11743
H          H       0.05404   0.70565   0.09050   0.09181
H          H       0.36669   0.89476   0.01974   0.10742
H          H       0.19989   0.67193   0.16730   0.13224
H          H       0.53997   0.06073   0.05608   0.11635
H          H       0.58617   0.10877   0.18006   0.09697
H          H       0.14502   0.71742   0.28499   0.13215
H          H       0.72555   0.69763   0.19356   0.12825
H          H       0.80638   0.70979   0.08461   0.12285
H          H       0.88438   0.84893   0.28077   0.10240
H          H       0.15827   0.85018   0.40468   0.11424
H          H       0.11666   0.99503   0.47265   0.12284
H          H       0.75572   0.81210   0.04582   0.12226
H          H       0.14711   0.85577   0.00438   0.11056
H          H       0.67626   0.72745   0.93685   0.11267
H          H       0.06947   0.77420   0.89485   0.12358
H          H       0.28335   0.63464   0.43812   0.11639
H          H       0.59694   0.57512   0.50175   0.11511
H          H       0.33731   0.76764   0.52979   0.11693
H          H       0.64877   0.70760   0.59265   0.09029
H          H       0.52741   0.89125   0.51818   0.10924
H          H       0.46501   0.67010   0.66640   0.13194
H          H       0.52458   0.05592   0.55440   0.11639
H          H       0.52488   0.10363   0.67852   0.09714
H          H       0.56593   0.71700   0.78440   0.13207
H          H       0.97027   0.70484   0.69517   0.12886
H          H       0.90165   0.71505   0.58596   0.12097
H          H       0.96612   0.85530   0.78184   0.10117
H          H       0.68605   0.84843   0.90323   0.11471
H          H       0.87458   0.99525   0.97203   0.12364
H          H       0.05707   0.81653   0.54572   0.12238
H          H       0.70901   0.85654   0.50524   0.11152
H          H       0.04749   0.73003   0.43706   0.11400
H          H       0.70122   0.77346   0.39588   0.12361
H          H       0.64093   0.35908   0.05891   0.11500
H          H       0.02406   0.42650   0.00089   0.11542
H          H       0.56442   0.22617   0.96709   0.11774
H          H       0.94595   0.29434   0.90949   0.09179
H          H       0.63330   0.10523   0.98026   0.10731
H          H       0.80010   0.32806   0.83269   0.13205
H          H       0.46002   0.93926   0.94392   0.11654
H          H       0.41382   0.89123   0.81994   0.09721
H          H       0.85497   0.28257   0.71501   0.13209
H          H       0.27443   0.30236   0.80643   0.12787
H          H       0.19361   0.29021   0.91539   0.12269
H          H       0.11561   0.15106   0.71923   0.10262
H          H       0.84172   0.14981   0.59532   0.11431
H          H       0.88333   0.00496   0.52735   0.12293
H          H       0.24427   0.18789   0.95418   0.12212
H          H       0.85288   0.14422   0.99562   0.11082
H          H       0.32374   0.27254   0.06315   0.11250
H          H       0.93052   0.22579   0.10515   0.12361
C          C       0.59582   0.48053   0.58835   0.27050
C          C       0.56422   0.40445   0.53637   0.01238
C          C       0.63624   0.34838   0.52806  -0.12397
C          C       0.46074   0.38336   0.49189  -0.11930
C          C       0.60601   0.27430   0.47689  -0.13338
C          C       0.43268   0.30945   0.44073  -0.12074
C          C       0.50442   0.25303   0.43138   0.09946
C          C       0.47170   0.17533   0.37686  -0.07119
C          C       0.47503   0.09494   0.38200   0.14678
C          C       0.43668   0.18545   0.32088   0.16195
C          C       0.47692   0.06990   0.43558  -0.21860
C          C       0.47172   0.26503   0.30511  -0.20681
C          C       0.47730   0.98425   0.41699  -0.18072
C          C       0.47587   0.95860   0.35286   0.02906
C          C       0.41902   0.24120   0.24421  -0.22008
C          C       0.35018   0.14813   0.22473   0.12574
C          C       0.06136   0.24511   0.31230  -0.21957
C          C       0.26419   0.09055   0.17084   0.15018
C          C       0.08683   0.23592   0.36959  -0.21963
C          C       0.05239   0.16418   0.26750   0.02324
C          C       0.25393   0.09759   0.11119  -0.19386
C          C       0.09220   0.15055   0.35743   0.13836
C          C       0.15877   0.02109   0.07558  -0.19242
C          C       0.10868   0.96745   0.11419   0.15967
C          C       0.11608   0.11090   0.40080  -0.06468
C          C       0.11729   0.15800   0.46610   0.10526
C          C       0.02218   0.19477   0.48688  -0.12637
C          C       0.21623   0.17032   0.50993  -0.12265
C          C       0.02704   0.24278   0.54770  -0.11491
C          C       0.22144   0.21720   0.57114  -0.11051
C          C       0.12706   0.25484   0.59078   0.02467
C          C       0.13041   0.30336   0.65299   0.26904
C          C       0.12072   0.52154   0.91164   0.26948
C          C       0.16267   0.59757   0.96372   0.01190
C          C       0.29290   0.65604   0.97380  -0.12376
C          C       0.07687   0.61657   0.00679  -0.11812
C          C       0.33530   0.73011   0.02514  -0.13322
C          C       0.12126   0.69049   0.05828  -0.12334
C          C       0.25151   0.74934   0.06929   0.10032
C          C       0.29562   0.82708   0.12406  -0.07099
C          C       0.38235   0.90846   0.11941   0.14454
C          C       0.24806   0.81590   0.17980   0.16392
C          C       0.41100   0.93389   0.06595  -0.21530
C          C       0.20146   0.73615   0.19551  -0.20740
C          C       0.49952   0.02030   0.08464  -0.18089
C          C       0.52333   0.04597   0.14876   0.02843
C          C       0.17199   0.75934   0.25640  -0.22022
C          C       0.19749   0.85197   0.27599   0.12499
C          C       0.80939   0.74863   0.18622  -0.22074
C          C       0.16890   0.90892   0.32965   0.15018
C          C       0.84538   0.75873   0.12907  -0.22092
C          C       0.88363   0.82974   0.23135   0.02182
C          C       0.15173   0.90268   0.38965  -0.19260
C          C       0.93922   0.84478   0.14153   0.13982
C          C       0.13329   0.97811   0.42484  -0.19204
C          C       0.13720   0.03046   0.38560   0.15841
C          C       0.00487   0.88600   0.09867  -0.06500
C          C       0.95760   0.83973   0.03350   0.10269
C          C       0.82394   0.80241   0.01294  -0.12559
C          C       0.04430   0.82874   0.98936  -0.12044
C          C       0.77940   0.75545   0.95198  -0.11549
C          C       0.00140   0.78276   0.92804  -0.11060
C          C       0.86762   0.74501   0.90853   0.02393
C          C       0.82096   0.69787   0.84616   0.26913
C          C       0.40422   0.51963   0.41177   0.26831
C          C       0.43574   0.59552   0.46361   0.01332
C          C       0.36374   0.65161   0.47193  -0.12345
C          C       0.53923   0.61662   0.50810  -0.11922
C          C       0.39398   0.72569   0.52311  -0.13372
C          C       0.56730   0.69054   0.55927  -0.12117
C          C       0.49556   0.74695   0.56862   0.09941
C          C       0.52829   0.82467   0.62314  -0.07120
C          C       0.52496   0.90505   0.61800   0.14689
C          C       0.56331   0.81454   0.67911   0.16223
C          C       0.52307   0.93010   0.56442  -0.21825
C          C       0.52827   0.73496   0.69489  -0.20662
C          C       0.52269   0.01575   0.58300  -0.18072
C          C       0.52412   0.04140   0.64714   0.02874
C          C       0.58097   0.75880   0.75578  -0.21992
C          C       0.64981   0.85187   0.77527   0.12571
C          C       0.93863   0.75489   0.68770  -0.21967
C          C       0.73580   0.90944   0.82915   0.15052
C          C       0.91317   0.76407   0.63041  -0.21929
C          C       0.94761   0.83582   0.73250   0.02321
C          C       0.74606   0.90240   0.88880  -0.19368
C          C       0.90779   0.84944   0.64257   0.13840
C          C       0.84122   0.97891   0.92442  -0.19255
C          C       0.89131   0.03254   0.88581   0.15946
C          C       0.88391   0.88909   0.59919  -0.06458
C          C       0.88270   0.84199   0.53390   0.10506
C          C       0.97781   0.80522   0.51312  -0.12651
C          C       0.78376   0.82968   0.49006  -0.12253
C          C       0.97295   0.75721   0.45230  -0.11492
C          C       0.77855   0.78279   0.42885  -0.11012
C          C       0.87293   0.74515   0.40921   0.02494
C          C       0.86958   0.69665   0.34703   0.26853
C          C       0.87922   0.47836   0.08830   0.26956
C          C       0.83733   0.40244   0.03629   0.01186
C          C       0.70710   0.34396   0.02620  -0.12353
C          C       0.92312   0.38343   0.99321  -0.11814
C          C       0.66469   0.26988   0.97486  -0.13307
C          C       0.87873   0.30950   0.94171  -0.12341
C          C       0.74848   0.25065   0.93071   0.10022
C          C       0.70437   0.17291   0.87593  -0.07081
C          C       0.61763   0.09153   0.88059   0.14438
C          C       0.75193   0.18410   0.82020   0.16409
C          C       0.58899   0.06610   0.93405  -0.21551
C          C       0.79853   0.26385   0.80449  -0.20767
C          C       0.50047   0.97969   0.91536  -0.18068
C          C       0.47666   0.95402   0.85123   0.02880
C          C       0.82799   0.24065   0.74359  -0.21997
C          C       0.80250   0.14802   0.72401   0.12495
C          C       0.19060   0.25136   0.81378  -0.22085
C          C       0.83109   0.09107   0.67035   0.15034
C          C       0.15461   0.24126   0.87093  -0.22108
C          C       0.11636   0.17026   0.76865   0.02189
C          C       0.84826   0.09731   0.61035  -0.19289
C          C       0.06077   0.15521   0.85847   0.13978
C          C       0.86670   0.02188   0.57516  -0.19169
C          C       0.86279   0.96953   0.61440   0.15838
C          C       0.99512   0.11399   0.90133  -0.06473
C          C       0.04239   0.16026   0.96650   0.10264
C          C       0.17605   0.19758   0.98706  -0.12535
C          C       0.95569   0.17126   0.01064  -0.12037
C          C       0.22059   0.24454   0.04802  -0.11564
C          C      -0.00140   0.21723   0.07195  -0.11037
C          C       0.13238   0.25498   0.09147   0.02409
C          C       0.17901   0.30211   0.15382   0.26921
N          N       0.62292   0.54362   0.63139  -0.38917
N          N       0.47490   0.02413   0.33165  -0.33107
N          N       0.36540   0.11590   0.27047  -0.35498
N          N       0.17543   0.01284   0.17224  -0.35334
N          N       0.07061   0.10850   0.29414  -0.29223
N          N       0.08689   0.45820   0.86837  -0.38981
N          N       0.45451   0.97977   0.16995  -0.33036
N          N       0.24662   0.88463   0.23020  -0.35559
N          N       0.15799   0.98514   0.32757  -0.35476
N          N       0.96017   0.88614   0.20472  -0.29338
N          N       0.77881   0.65831   0.79506  -0.39627
N          N       0.12989   0.34396   0.70398  -0.39739
N          N       0.22119   0.34170   0.20496  -0.39685
N          N       0.87010   0.65602   0.29600  -0.39676
N          N       0.37708   0.45623   0.36850  -0.39101
N          N       0.52509   0.97586   0.66835  -0.33107
N          N       0.63459   0.88409   0.72953  -0.35547
N          N       0.82456   0.98715   0.82776  -0.35354
N          N       0.92938   0.89149   0.70586  -0.29257
N          N       0.91313   0.54186   0.13167  -0.39163
N          N       0.54548   0.02022   0.83004  -0.33026
N          N       0.75337   0.11536   0.76980  -0.35548
N          N       0.84200   0.01485   0.67243  -0.35464
N          N       0.03982   0.11385   0.79527  -0.29297

