data_crystal

_audit_creation_method 'AiiDA-DDEC plugin'

_cell_length_a        11.82107
_cell_length_b        17.27881
_cell_length_c        21.63313

_cell_angle_alpha     90.00202
_cell_angle_beta     89.91299
_cell_angle_gamma     106.01265

_symmetry_space_group_name_Hall 'P 1'
_symmetry_space_group_name_H-M  'P 1'

loop_
_symmetry_equiv_pos_as_xyz
 'x,y,z'

loop_
_atom_site_label
_atom_site_type_symbol
_atom_site_fract_x
_atom_site_fract_y
_atom_site_fract_z
_atom_site_charge
Zn         Zn      0.82543   0.72826   0.57027   1.01573
Zn         Zn      0.64350   0.82711   0.62024   0.82496
Zn         Zn      0.06470   0.36552   0.53269   0.82358
Zn         Zn      0.67613   0.27193   0.07003   1.02186
Zn         Zn      0.85389   0.17044   0.12017   0.82389
Zn         Zn      0.43604   0.63440   0.03304   0.82230
Zn         Zn      0.17457   0.27174   0.42973   1.01587
Zn         Zn      0.35650   0.17289   0.37976   0.82489
Zn         Zn      0.93529   0.63448   0.46731   0.82357
Zn         Zn      0.32387   0.72806   0.92997   1.02189
Zn         Zn      0.14611   0.82956   0.87983   0.82390
Zn         Zn      0.56396   0.36560   0.96696   0.82235
H          H       0.40658   0.78877   0.67412   0.10521
H          H       0.27090   0.86252   0.71990   0.13004
H          H       0.32433   0.01323   0.70948   0.11941
H          H       0.51344   0.08389   0.65518   0.12713
H          H       0.64201   0.00086   0.61532   0.10803
H          H       0.10719   0.36145   0.66874   0.09905
H          H       0.04271   0.41845   0.76471   0.12143
H          H       0.89598   0.49908   0.75459   0.10499
H          H       0.82056   0.51932   0.64881   0.13091
H          H       0.89380   0.45732   0.55782   0.10744
H          H       0.11138   0.91814   0.58189   0.12425
H          H       0.28291   0.03820   0.56214   0.10187
H          H       0.24852   0.17266   0.54636   0.11276
H          H       0.87900   0.07056   0.58093   0.12003
H          H       0.57393   0.52562   0.62497   0.11781
H          H       0.39104   0.41212   0.64189   0.09648
H          H       0.32839   0.30521   0.56220   0.11608
H          H       0.63797   0.41475   0.45582   0.11777
H          H       0.19229   0.56581   0.57951   0.11463
H          H       0.33565   0.55112   0.65943   0.09669
H          H       0.34544   0.62477   0.76088   0.11205
H          H       0.07578   0.72873   0.69726   0.13046
H          H       0.09188   0.21115   0.17395   0.10570
H          H       0.22832   0.13796   0.21962   0.12968
H          H       0.17578   0.98727   0.20939   0.11961
H          H       0.98703   0.91595   0.15533   0.12835
H          H       0.85779  -0.00160   0.11557   0.10942
H          H       0.39327   0.63859   0.16893   0.09970
H          H       0.45729   0.58149   0.26492   0.12051
H          H       0.60387   0.50075   0.25481   0.10510
H          H       0.67970   0.48052   0.14893   0.13089
H          H       0.60689   0.54263   0.05802   0.10724
H          H       0.38643   0.08160   0.08169   0.12375
H          H       0.21507   0.96140   0.06200   0.10149
H          H       0.24952   0.82695   0.04638   0.11267
H          H       0.61873   0.92910   0.08080   0.12025
H          H       0.92413   0.47390   0.12406   0.11702
H          H       0.10689   0.58708   0.14153   0.09666
H          H       0.17107   0.69442   0.06228   0.11567
H          H       0.86326   0.58570   0.95486   0.11626
H          H       0.30785   0.43442   0.07937   0.11378
H          H       0.16456   0.44835   0.15973   0.09503
H          H       0.15620   0.37454   0.26115   0.11190
H          H       0.42623   0.27154   0.19614   0.13064
H          H       0.59342   0.21123   0.32588   0.10507
H          H       0.72910   0.13747   0.28010   0.12996
H          H       0.67567   0.98677   0.29052   0.11949
H          H       0.48656   0.91611   0.34482   0.12725
H          H       0.35799  -0.00087   0.38468   0.10813
H          H       0.89281   0.63854   0.33126   0.09898
H          H       0.95729   0.58154   0.23529   0.12133
H          H       0.10402   0.50091   0.24541   0.10500
H          H       0.17944   0.48068   0.35119   0.13100
H          H       0.10620   0.54267   0.44218   0.10743
H          H       0.88862   0.08186   0.41811   0.12414
H          H       0.71709   0.96179   0.43786   0.10182
H          H       0.75148   0.82734   0.45364   0.11286
H          H       0.12099   0.92943   0.41907   0.11998
H          H       0.42607   0.47438   0.37503   0.11787
H          H       0.60896   0.58787   0.35811   0.09645
H          H       0.67161   0.69479   0.43780   0.11596
H          H       0.36203   0.58525   0.54418   0.11783
H          H       0.80771   0.43418   0.42049   0.11457
H          H       0.66435   0.44887   0.34057   0.09667
H          H       0.65456   0.37522   0.23912   0.11208
H          H       0.92422   0.27127   0.30274   0.13059
H          H       0.90812   0.78884   0.82605   0.10586
H          H       0.77168   0.86204   0.78038   0.12982
H          H       0.82422   0.01273   0.79061   0.11954
H          H       0.01297   0.08405   0.84468   0.12829
H          H       0.14221   0.00160   0.88443   0.10934
H          H       0.60673   0.36140   0.83107   0.09978
H          H       0.54271   0.41851   0.73508   0.12048
H          H       0.39613   0.49925   0.74519   0.10499
H          H       0.32030   0.51947   0.85107   0.13081
H          H       0.39311   0.45736   0.94198   0.10726
H          H       0.61357   0.91840   0.91832   0.12386
H          H       0.78493   0.03860   0.93800   0.10153
H          H       0.75048   0.17305   0.95362   0.11263
H          H       0.38126   0.07089   0.91920   0.12031
H          H       0.07587   0.52610   0.87594   0.11692
H          H       0.89311   0.41291   0.85847   0.09663
H          H       0.82893   0.30558   0.93772   0.11571
H          H       0.13674   0.41429   0.04514   0.11637
H          H       0.69215   0.56558   0.92064   0.11387
H          H       0.83544   0.55164   0.84028   0.09516
H          H       0.84380   0.62545   0.73886   0.11192
H          H       0.57376   0.72845   0.80386   0.13043
C          C       0.42640   0.85406   0.67166   0.09968
C          C       0.35119   0.89559   0.69635  -0.12167
C          C       0.38164   0.97932   0.69071  -0.02415
C          C       0.48647   0.01877   0.66066  -0.14273
C          C       0.55813   0.97341   0.63789   0.07753
C          C       0.04383   0.39667   0.66679   0.08664
C          C       0.00735   0.42838   0.71989  -0.13598
C          C       0.92567   0.47293   0.71402  -0.02881
C          C       0.88293   0.48395   0.65553  -0.12385
C          C       0.92357   0.45018   0.60451   0.10490
C          C       0.88470   0.91295   0.59081   0.59704
C          C       0.98529   0.98687   0.58280  -0.04951
C          C       0.09966   0.97818   0.57765  -0.08203
C          C       0.19453   0.04523   0.56623  -0.10099
C          C       0.17578   0.12097   0.55843  -0.08439
C          C       0.06189   0.13025   0.56394  -0.04434
C          C       0.96706   0.06307   0.57707  -0.09892
C          C       0.03866   0.21013   0.55561   0.56903
C          C       0.72201   0.54764   0.52762   0.58007
C          C       0.61749   0.47725   0.53950  -0.04893
C          C       0.54770   0.47595   0.59236  -0.09238
C          C       0.44574   0.41306   0.60123  -0.10276
C          C       0.41098   0.35199   0.55713  -0.07884
C          C       0.48103   0.35250   0.50469  -0.03519
C          C       0.58476   0.41467   0.49669  -0.09484
C          C       0.44742   0.28963   0.45582   0.56977
C          C       0.04413   0.66141   0.58450   0.58531
C          C       0.12714   0.64924   0.63320  -0.04492
C          C       0.19885   0.59810   0.62308  -0.07830
C          C       0.27773   0.58908   0.66871  -0.09422
C          C       0.28372   0.62968   0.72482  -0.09372
C          C       0.21004   0.67976   0.73563  -0.05126
C          C       0.13248   0.68969   0.68960  -0.10945
C          C       0.21597   0.72297   0.79601   0.58196
C          C       0.07253   0.14587   0.17161   0.10043
C          C       0.14811   0.10466   0.19622  -0.12036
C          C       0.11820   0.02093   0.19066  -0.02338
C          C       0.01358   0.98108   0.16076  -0.14246
C          C       0.94154   0.02609   0.13806   0.07575
C          C       0.45663   0.60337   0.16703   0.08651
C          C       0.49278   0.57155   0.22009  -0.13595
C          C       0.57440   0.52693   0.21423  -0.03044
C          C       0.61742   0.51594   0.15574  -0.12361
C          C       0.57713   0.54984   0.10475   0.10573
C          C       0.61435   0.08593   0.09078   0.59798
C          C       0.51267   0.01273   0.08260  -0.04968
C          C       0.39839   0.02160   0.07745  -0.08088
C          C       0.30351   0.95448   0.06608  -0.10109
C          C       0.32214   0.87868   0.05837  -0.08655
C          C       0.43592   0.86929   0.06384  -0.04005
C          C       0.53064   0.93644   0.07686  -0.09970
C          C       0.45914   0.78940   0.05564   0.56577
C          C       0.77784   0.45257   0.02567   0.58317
C          C       0.88211   0.52277   0.03843  -0.05194
C          C       0.95084   0.52374   0.09157  -0.09042
C          C       0.05270   0.58655   0.10081  -0.10238
C          C       0.08838   0.64787   0.05691  -0.07877
C          C       0.01935   0.64770   0.00425  -0.03653
C          C       0.91575   0.58561   0.99588  -0.09258
C          C       0.05340   0.71076   0.95549   0.57125
C          C       0.45692   0.33994   0.08363   0.58396
C          C       0.37381   0.35119   0.13264  -0.04539
C          C       0.30157   0.40202   0.12287  -0.07806
C          C       0.22278   0.41058   0.16878  -0.08980
C          C       0.21767   0.36991   0.22480  -0.09444
C          C       0.29187   0.32011   0.23521  -0.05265
C          C       0.36911   0.31039   0.18884  -0.10854
C          C       0.28673   0.27716   0.29561   0.58153
C          C       0.57360   0.14594   0.32834   0.09941
C          C       0.64881   0.10440   0.30365  -0.12160
C          C       0.61836   0.02068   0.30929  -0.02410
C          C       0.51352   0.98123   0.33934  -0.14269
C          C       0.44187   0.02658   0.36211   0.07756
C          C       0.95616   0.60333   0.33321   0.08649
C          C       0.99265   0.57162   0.28011  -0.13584
C          C       0.07433   0.52706   0.28598  -0.02879
C          C       0.11707   0.51604   0.34447  -0.12391
C          C       0.07643   0.54982   0.39549   0.10507
C          C       0.11530   0.08705   0.40919   0.59715
C          C       0.01471   0.01313   0.41720  -0.04962
C          C       0.90034   0.02182   0.42235  -0.08219
C          C       0.80547   0.95477   0.43377  -0.10075
C          C       0.82422   0.87903   0.44157  -0.08444
C          C       0.93811   0.86975   0.43606  -0.04440
C          C       0.03294   0.93692   0.42293  -0.09879
C          C       0.96134   0.78986   0.44439   0.56902
C          C       0.27799   0.45236   0.47238   0.58013
C          C       0.38251   0.52275   0.46050  -0.04900
C          C       0.45230   0.52405   0.40764  -0.09237
C          C       0.55426   0.58694   0.39877  -0.10272
C          C       0.58902   0.64801   0.44287  -0.07889
C          C       0.51897   0.64750   0.49531  -0.03519
C          C       0.41524   0.58533   0.50331  -0.09491
C          C       0.55258   0.71037   0.54418   0.56991
C          C       0.95587   0.33858   0.41550   0.58554
C          C       0.87286   0.35076   0.36680  -0.04501
C          C       0.80114   0.40190   0.37692  -0.07823
C          C       0.72227   0.41092   0.33129  -0.09439
C          C       0.71628   0.37031   0.27518  -0.09376
C          C       0.78996   0.32024   0.26437  -0.05127
C          C       0.86752   0.31031   0.31040  -0.10951
C          C       0.78403   0.27702   0.20399   0.58188
C          C       0.92747   0.85413   0.82839   0.10050
C          C       0.85189   0.89533   0.80378  -0.12052
C          C       0.88180   0.97907   0.80934  -0.02339
C          C       0.98642   0.01892   0.83924  -0.14256
C          C       0.05846   0.97391   0.86194   0.07564
C          C       0.54337   0.39663   0.83297   0.08647
C          C       0.50722   0.42845   0.77991  -0.13582
C          C       0.42560   0.47307   0.78577  -0.03043
C          C       0.38258   0.48406   0.84426  -0.12363
C          C       0.42287   0.45016   0.89525   0.10561
C          C       0.38565   0.91407   0.90923   0.59782
C          C       0.48733   0.98727   0.91740  -0.04960
C          C       0.60161   0.97840   0.92255  -0.08078
C          C       0.69649   0.04551   0.93392  -0.10115
C          C       0.67786   0.12132   0.94163  -0.08673
C          C       0.56408   0.13070   0.93616  -0.03982
C          C       0.46935   0.06356   0.92314  -0.09997
C          C       0.54086   0.21060   0.94436   0.56573
C          C       0.22216   0.54743   0.97433   0.58335
C          C       0.11789   0.47723   0.96157  -0.05193
C          C       0.04916   0.47626   0.90843  -0.09048
C          C       0.94730   0.41345   0.89919  -0.10244
C          C       0.91162   0.35213   0.94310  -0.07862
C          C       0.98065   0.35229   0.99575  -0.03646
C          C       0.08425   0.41438   0.00412  -0.09274
C          C       0.94660   0.28924   0.04452   0.57128
C          C       0.54308   0.66006   0.91637   0.58362
C          C       0.62619   0.64880   0.86736  -0.04531
C          C       0.69843   0.59798   0.87713  -0.07795
C          C       0.77722   0.58942   0.83122  -0.08989
C          C       0.78233   0.63009   0.77520  -0.09447
C          C       0.70813   0.67988   0.76479  -0.05265
C          C       0.63088   0.68960   0.81116  -0.10849
C          C       0.71327   0.72283   0.70439   0.58151
N          N       0.52841   0.89232   0.64321  -0.22269
N          N       0.00305   0.40746   0.61011  -0.21329
N          N       0.97069   0.10717   0.14333  -0.22221
N          N       0.49777   0.59263   0.11036  -0.21331
N          N       0.47158   0.10768   0.35679  -0.22262
N          N       0.99695   0.59254   0.38989  -0.21337
N          N       0.02931   0.89283   0.85667  -0.22206
N          N       0.50223   0.40736   0.88964  -0.21318
O          O       0.78393   0.92191   0.60608  -0.56275
O          O       0.90818   0.84670   0.58125  -0.55251
O          O       0.94442   0.22281   0.57172  -0.51597
O          O       0.12575   0.26866   0.53126  -0.60542
O          O       0.73718   0.60657   0.56456  -0.56390
O          O       0.78823   0.54310   0.48141  -0.54353
O          O       0.33924   0.24161   0.45600  -0.59045
O          O       0.51995   0.28127   0.41595  -0.51250
O          O       0.04004   0.62069   0.53423  -0.54609
O          O       0.98480   0.71024   0.59619  -0.54167
O          O       0.15475   0.77398   0.80038  -0.55047
O          O       0.28051   0.70653   0.83746  -0.54760
O          O       0.71409   0.07528   0.10623  -0.56260
O          O       0.59376   0.15304   0.08128  -0.55471
O          O       0.55351   0.77697   0.07174  -0.51632
O          O       0.37244   0.73079   0.03140  -0.60257
O          O       0.76019   0.39384   0.06298  -0.57088
O          O       0.71416   0.45675   0.97845  -0.54240
O          O       0.16130   0.75928   0.95592  -0.59214
O          O       0.98143   0.71889   0.91551  -0.51328
O          O       0.46311   0.38313   0.03440  -0.54486
O          O       0.51392   0.28933   0.09364  -0.54233
O          O       0.34835   0.22639   0.29990  -0.55076
O          O       0.22239   0.29343   0.33730  -0.54707
O          O       0.21607   0.07809   0.39392  -0.56268
O          O       0.09182   0.15329   0.41875  -0.55268
O          O       0.05558   0.77719   0.42828  -0.51590
O          O       0.87424   0.73134   0.46874  -0.60537
O          O       0.26282   0.39342   0.43544  -0.56388
O          O       0.21177   0.45689   0.51859  -0.54362
O          O       0.66076   0.75839   0.54400  -0.59064
O          O       0.48005   0.71873   0.58405  -0.51254
O          O       0.95996   0.37931   0.46578  -0.54623
O          O       0.01520   0.28976   0.40381  -0.54165
O          O       0.84525   0.22602   0.19962  -0.55026
O          O       0.71949   0.29347   0.16254  -0.54765
O          O       0.28591   0.92472   0.89377  -0.56267
O          O       0.40623   0.84696   0.91872  -0.55450
O          O       0.44649   0.22302   0.92826  -0.51633
O          O       0.62756   0.26921   0.96860  -0.60265
O          O       0.23981   0.60616   0.93702  -0.57114
O          O       0.28584   0.54324   0.02155  -0.54228
O          O       0.83870   0.24072   0.04408  -0.59208
O          O       0.01857   0.28111   0.08449  -0.51328
O          O       0.53689   0.61686   0.96560  -0.54454
O          O       0.48608   0.71066   0.90636  -0.54238
O          O       0.65165   0.77361   0.70010  -0.55088
O          O       0.77761   0.70656   0.66270  -0.54694

