data_crystal

_audit_creation_method 'AiiDA-DDEC plugin'

_cell_length_a        11.54880
_cell_length_b        18.30265
_cell_length_c        24.12541

_cell_angle_alpha     89.99955
_cell_angle_beta     90.04886
_cell_angle_gamma     90.00000

_symmetry_space_group_name_Hall 'P 1'
_symmetry_space_group_name_H-M  'P 1'

loop_
_symmetry_equiv_pos_as_xyz
 'x,y,z'

loop_
_atom_site_label
_atom_site_type_symbol
_atom_site_fract_x
_atom_site_fract_y
_atom_site_fract_z
_atom_site_charge
Zn         Zn      0.37439   0.07154   0.97644   0.91114
Zn         Zn      0.62561   0.07154   0.52357   0.91110
Zn         Zn      0.37432   0.42863   0.02336   0.91254
Zn         Zn      0.62567   0.42863   0.47665   0.91245
Zn         Zn      0.62562   0.92846   0.02357   0.91131
Zn         Zn      0.37440   0.92847   0.47644   0.91120
Zn         Zn      0.62568   0.57138   0.97665   0.91255
Zn         Zn      0.37434   0.57137   0.52336   0.91247
Zn         Zn     -0.00027   0.24587   0.25018   0.76892
Zn         Zn      0.00007   0.25438   0.75007   0.77058
Zn         Zn      0.00032   0.75414   0.74979   0.76864
Zn         Zn      0.00034   0.74562   0.25024   0.77066
H          H       0.48034   0.20420   0.04322   0.11507
H          H       0.70693   0.33023   0.14703   0.12801
H          H       0.73533   0.09595   0.14494   0.12510
H          H       0.26919   0.00859   0.08145   0.14596
H          H       0.12245   0.97087   0.15140   0.11638
H          H       0.91531   0.00346   0.14027   0.11345
H          H       0.84603   0.07239   0.05835   0.12074
H          H       0.02839   0.14808   0.85165   0.09987
H          H       0.28383   0.24338   0.96058   0.11818
H          H       0.31470   0.34052   0.88992   0.13038
H          H       0.19279   0.33781   0.80293   0.10762
H          H       0.83468   0.13008   0.97707   0.11177
H          H       0.89778   0.14869   0.91274   0.09031
H          H       0.97106   0.26930   0.94804   0.08633
H          H       0.81945   0.26210   0.94989   0.09978
H          H       0.51966   0.20420   0.45678   0.11508
H          H       0.29308   0.33023   0.35297   0.12815
H          H       0.26468   0.09595   0.35506   0.12504
H          H       0.73082   0.00859   0.41855   0.14593
H          H       0.87755   0.97088   0.34860   0.11629
H          H       0.08468   0.00347   0.35973   0.11344
H          H       0.15397   0.07240   0.44165   0.12075
H          H       0.97162   0.14808   0.64836   0.10012
H          H       0.71617   0.24338   0.53943   0.11794
H          H       0.68531   0.34051   0.61009   0.13011
H          H       0.80722   0.33781   0.69708   0.10788
H          H       0.16532   0.13008   0.52294   0.11167
H          H       0.10222   0.14869   0.58726   0.09059
H          H       0.02895   0.26930   0.55197   0.08640
H          H       0.18056   0.26210   0.55011   0.09997
H          H       0.47906   0.29562   0.95545   0.11448
H          H       0.70474   0.17077   0.85059   0.12745
H          H       0.73587   0.40481   0.85560   0.12474
H          H       0.26853   0.49167   0.91866   0.14608
H          H       0.12146   0.52909   0.84857   0.11653
H          H       0.91448   0.49636   0.85974   0.11324
H          H       0.84562   0.42753   0.94179   0.12089
H          H       0.02874   0.35203   0.14833   0.10031
H          H       0.28375   0.25660   0.03947   0.11770
H          H       0.31530   0.15978   0.11034   0.12945
H          H       0.19319   0.16235   0.19717   0.10811
H          H       0.83451   0.37004   0.02341   0.11235
H          H       0.89863   0.35107   0.08745   0.08946
H          H       0.97162   0.23079   0.05183   0.08627
H          H       0.81999   0.23782   0.05017   0.09914
H          H       0.52095   0.29562   0.54456   0.11440
H          H       0.29526   0.17077   0.64941   0.12757
H          H       0.26413   0.40481   0.64441   0.12476
H          H       0.73148   0.49167   0.58135   0.14592
H          H       0.87855   0.52909   0.65144   0.11678
H          H       0.08552   0.49636   0.64027   0.11360
H          H       0.15439   0.42753   0.55821   0.12100
H          H       0.97124   0.35202   0.35169   0.10029
H          H       0.71623   0.25660   0.46056   0.11811
H          H       0.68465   0.15977   0.38969   0.12934
H          H       0.80676   0.16235   0.30285   0.10836
H          H       0.16548   0.37004   0.47660   0.11254
H          H       0.10137   0.35107   0.41255   0.08938
H          H       0.02839   0.23079   0.44818   0.08600
H          H       0.18001   0.23782   0.44983   0.09915
H          H       0.51966   0.79580   0.95678   0.11529
H          H       0.29307   0.66978   0.85298   0.12768
H          H       0.26467   0.90405   0.85507   0.12509
H          H       0.73082   0.99142   0.91855   0.14578
H          H       0.87755   0.02913   0.84861   0.11624
H          H       0.08469   0.99654   0.85974   0.11348
H          H       0.15397   0.92761   0.94166   0.12069
H          H       0.97163   0.85193   0.14836   0.09992
H          H       0.71619   0.75663   0.03944   0.11792
H          H       0.68534   0.65949   0.11010   0.12973
H          H       0.80725   0.66220   0.19709   0.10749
H          H       0.16532   0.86993   0.02294   0.11178
H          H       0.10222   0.85131   0.08726   0.09053
H          H       0.02895   0.73070   0.05197   0.08631
H          H       0.18056   0.73790   0.05011   0.09978
H          H       0.48035   0.79580   0.54322   0.11491
H          H       0.70693   0.66978   0.64703   0.12793
H          H       0.73532   0.90405   0.64494   0.12524
H          H       0.26919   0.99142   0.58146   0.14617
H          H       0.12245   0.02913   0.65140   0.11661
H          H       0.91532   0.99654   0.64027   0.11353
H          H       0.84604   0.92761   0.55835   0.12056
H          H       0.02840   0.85192   0.35166   0.10002
H          H       0.28385   0.75663   0.46059   0.11777
H          H       0.31472   0.65949   0.38993   0.13021
H          H       0.19281   0.66219   0.30293   0.10780
H          H       0.83468   0.86993   0.47706   0.11185
H          H       0.89778   0.85132   0.41274   0.09046
H          H       0.97106   0.73070   0.44804   0.08629
H          H       0.81945   0.73791   0.44989   0.09981
H          H       0.52095   0.70439   0.04456   0.11452
H          H       0.29526   0.82923   0.14941   0.12754
H          H       0.26413   0.59519   0.14440   0.12456
H          H       0.73148   0.50833   0.08135   0.14591
H          H       0.87854   0.47091   0.15143   0.11654
H          H       0.08552   0.50364   0.14027   0.11338
H          H       0.15438   0.57247   0.05821   0.12102
H          H       0.97127   0.64797   0.85168   0.10013
H          H       0.71626   0.74341   0.96054   0.11793
H          H       0.68471   0.84023   0.88966   0.12943
H          H       0.80681   0.83766   0.80283   0.10806
H          H       0.16549   0.62996   0.97660   0.11250
H          H       0.10138   0.64894   0.91255   0.08921
H          H       0.02839   0.76921   0.94818   0.08610
H          H       0.18001   0.76218   0.94984   0.09928
H          H       0.47906   0.70439   0.45545   0.11440
H          H       0.70473   0.82923   0.35059   0.12768
H          H       0.73586   0.59520   0.35559   0.12467
H          H       0.26852   0.50833   0.41865   0.14593
H          H       0.12146   0.47091   0.34857   0.11658
H          H       0.91448   0.50364   0.35973   0.11331
H          H       0.84562   0.57247   0.44179   0.12103
H          H       0.02876   0.64798   0.64832   0.10018
H          H       0.28378   0.74340   0.53945   0.11786
H          H       0.31536   0.84023   0.61031   0.12959
H          H       0.19325   0.83766   0.69715   0.10871
H          H       0.83452   0.62996   0.52341   0.11220
H          H       0.89863   0.64893   0.58745   0.08955
H          H       0.97162   0.76921   0.55183   0.08634
H          H       0.82000   0.76218   0.55017   0.09921
C          C       0.56284   0.07204   0.06592   0.61186
C          C       0.60182   0.14222   0.09207  -0.05367
C          C       0.54866   0.20682   0.07413  -0.10530
C          C       0.58737   0.27458   0.09339  -0.03089
C          C       0.67663   0.27763   0.13206  -0.09862
C          C       0.72938   0.21367   0.15108  -0.03460
C          C       0.69279   0.14560   0.13080  -0.10037
C          C       0.82921   0.22244   0.18981   0.54314
C          C       0.53675   0.34445   0.07269   0.56171
C          C       0.14001   0.06644   0.03208   0.13181
C          C       0.17850   0.02390   0.07681  -0.16463
C          C       0.09539   0.00245   0.11539  -0.09448
C          C       0.97733   0.02070   0.10895  -0.08592
C          C       0.93764   0.06051   0.06349  -0.16636
C          C       0.02144   0.08352   0.02551   0.08710
C          C       0.12472   0.13568   0.95785   0.25944
C          C       0.15204   0.18778   0.91305  -0.03128
C          C       0.09210   0.18948   0.86241   0.04954
C          C       0.23440   0.24299   0.92246  -0.04666
C          C       0.25199   0.29710   0.88288  -0.11751
C          C       0.18570   0.29581   0.83472   0.09739
C          C       0.90601   0.15960   0.95715  -0.06022
C          C       0.89932   0.24141   0.96907  -0.17811
C          C       0.43717   0.07204   0.43408   0.61192
C          C       0.39819   0.14222   0.40793  -0.05367
C          C       0.45134   0.20682   0.42587  -0.10527
C          C       0.41263   0.27458   0.40661  -0.03092
C          C       0.32339   0.27763   0.36794  -0.09892
C          C       0.27065   0.21367   0.34891  -0.03411
C          C       0.30722   0.14560   0.36920  -0.10062
C          C       0.17080   0.22244   0.31019   0.54302
C          C       0.46325   0.34445   0.42731   0.56163
C          C       0.85999   0.06645   0.46793   0.13165
C          C       0.82150   0.02390   0.42319  -0.16456
C          C       0.90461   0.00245   0.38461  -0.09458
C          C       0.02267   0.02070   0.39105  -0.08610
C          C       0.06236   0.06051   0.43652  -0.16625
C          C       0.97856   0.08352   0.47449   0.08680
C          C       0.87528   0.13568   0.54216   0.25980
C          C       0.84797   0.18778   0.58696  -0.03152
C          C       0.90792   0.18948   0.63760   0.04907
C          C       0.76561   0.24299   0.57754  -0.04730
C          C       0.74802   0.29710   0.61713  -0.11718
C          C       0.81432   0.29581   0.66529   0.09702
C          C       0.09399   0.15960   0.54286  -0.05984
C          C       0.10068   0.24141   0.53094  -0.17822
C          C       0.56268   0.42801   0.93405   0.61322
C          C       0.60150   0.35803   0.90765  -0.05509
C          C       0.54751   0.29328   0.92467  -0.10249
C          C       0.58521   0.22574   0.90453  -0.03373
C          C       0.67502   0.22320   0.86616  -0.09584
C          C       0.72869   0.28741   0.84820  -0.03681
C          C       0.69268   0.35513   0.86915  -0.09988
C          C       0.82899   0.27944   0.80983   0.54836
C          C       0.53375   0.15560   0.92435   0.56216
C          C       0.13971   0.43360   0.96794   0.13229
C          C       0.17793   0.47617   0.92320  -0.16402
C          C       0.09464   0.49752   0.88460  -0.09568
C          C       0.97662   0.47920   0.89107  -0.08474
C          C       0.93718   0.43944   0.93658  -0.16699
C          C       0.02119   0.41649   0.97454   0.08712
C          C       0.12479   0.36437   0.04217   0.25931
C          C       0.15220   0.31227   0.08698  -0.03070
C          C       0.09243   0.31063   0.13763   0.04852
C          C       0.23454   0.25707   0.07761  -0.04676
C          C       0.25236   0.20307   0.11727  -0.11585
C          C       0.18606   0.20435   0.16539   0.09553
C          C       0.90621   0.34041   0.04299  -0.05949
C          C       0.89960   0.25865   0.03092  -0.17898
C          C       0.43733   0.42801   0.56596   0.61381
C          C       0.39851   0.35803   0.59235  -0.05538
C          C       0.45250   0.29328   0.57534  -0.10261
C          C       0.41479   0.22574   0.59548  -0.03377
C          C       0.32498   0.22320   0.63384  -0.09559
C          C       0.27130   0.28741   0.65180  -0.03691
C          C       0.30732   0.35513   0.63085  -0.09959
C          C       0.17101   0.27944   0.69018   0.54825
C          C       0.46625   0.15561   0.57565   0.56222
C          C       0.86030   0.43361   0.53207   0.13267
C          C       0.82207   0.47617   0.57681  -0.16439
C          C       0.90537   0.49752   0.61540  -0.09525
C          C       0.02339   0.47920   0.60893  -0.08458
C          C       0.06283   0.43945   0.56343  -0.16692
C          C       0.97881   0.41649   0.52547   0.08697
C          C       0.87520   0.36437   0.45784   0.25902
C          C       0.84777   0.31227   0.41304  -0.03063
C          C       0.90754   0.31064   0.36240   0.04937
C          C       0.76543   0.25707   0.42241  -0.04612
C          C       0.74759   0.20307   0.38276  -0.11597
C          C       0.81387   0.20433   0.33464   0.09567
C          C       0.09378   0.34042   0.45701  -0.05967
C          C       0.10040   0.25865   0.46908  -0.17913
C          C       0.43717   0.92797   0.93409   0.61156
C          C       0.39819   0.85779   0.90793  -0.05343
C          C       0.45134   0.79318   0.92587  -0.10540
C          C       0.41263   0.72543   0.90662  -0.03077
C          C       0.32338   0.72237   0.86795  -0.09859
C          C       0.27063   0.78634   0.84893  -0.03472
C          C       0.30721   0.85440   0.86920  -0.10032
C          C       0.17079   0.77756   0.81019   0.54305
C          C       0.46325   0.65555   0.92731   0.56186
C          C       0.85999   0.93356   0.96793   0.13159
C          C       0.82150   0.97611   0.92320  -0.16447
C          C       0.90461   0.99756   0.88461  -0.09457
C          C       0.02268   0.97930   0.89105  -0.08633
C          C       0.06237   0.93950   0.93652  -0.16612
C          C       0.97856   0.91648   0.97450   0.08714
C          C       0.87529   0.86432   0.04216   0.25983
C          C       0.84798   0.81222   0.08697  -0.03165
C          C       0.90793   0.81052   0.13761   0.04925
C          C       0.76562   0.75702   0.07755  -0.04728
C          C       0.74805   0.70291   0.11714  -0.11674
C          C       0.81435   0.70421   0.16530   0.09668
C          C       0.09399   0.84040   0.04286  -0.06006
C          C       0.10068   0.75859   0.03094  -0.17794
C          C       0.56284   0.92797   0.56592   0.61196
C          C       0.60182   0.85779   0.59207  -0.05364
C          C       0.54866   0.79318   0.57413  -0.10555
C          C       0.58737   0.72543   0.59339  -0.03094
C          C       0.67661   0.72237   0.63207  -0.09862
C          C       0.72935   0.78634   0.65109  -0.03402
C          C       0.69278   0.85440   0.63081  -0.10039
C          C       0.82921   0.77757   0.68981   0.54271
C          C       0.53676   0.65555   0.57269   0.56165
C          C       0.14001   0.93356   0.53208   0.13158
C          C       0.17851   0.97611   0.57681  -0.16453
C          C       0.09539   0.99756   0.61540  -0.09435
C          C       0.97733   0.97930   0.60896  -0.08590
C          C       0.93764   0.93950   0.56349  -0.16632
C          C       0.02145   0.91648   0.52551   0.08699
C          C       0.12473   0.86433   0.45785   0.25961
C          C       0.15206   0.81222   0.41306  -0.03161
C          C       0.09211   0.81053   0.36243   0.05030
C          C       0.23442   0.75702   0.42247  -0.04600
C          C       0.25202   0.70290   0.38289  -0.11766
C          C       0.18574   0.70419   0.33473   0.09762
C          C       0.90601   0.84040   0.45715  -0.06004
C          C       0.89932   0.75860   0.46906  -0.17842
C          C       0.43732   0.57199   0.06596   0.61370
C          C       0.39850   0.64197   0.09235  -0.05527
C          C       0.45250   0.70673   0.07533  -0.10269
C          C       0.41478   0.77426   0.09548  -0.03355
C          C       0.32497   0.77680   0.13384  -0.09546
C          C       0.27128   0.71259   0.15179  -0.03708
C          C       0.30731   0.64487   0.13085  -0.09971
C          C       0.17101   0.72056   0.19018   0.54833
C          C       0.46625   0.84440   0.07566   0.56219
C          C       0.86029   0.56640   0.03206   0.13220
C          C       0.82207   0.52384   0.07680  -0.16410
C          C       0.90536   0.50249   0.11540  -0.09553
C          C       0.02338   0.52080   0.10893  -0.08469
C          C       0.06282   0.56056   0.06342  -0.16695
C          C       0.97881   0.58351   0.02547   0.08726
C          C       0.87521   0.63564   0.95783   0.25931
C          C       0.84780   0.68774   0.91302  -0.03107
C          C       0.90758   0.68938   0.86237   0.04852
C          C       0.76547   0.74293   0.92239  -0.04660
C          C       0.74765   0.79693   0.88274  -0.11569
C          C       0.81395   0.79565   0.83462   0.09536
C          C       0.09379   0.65959   0.95701  -0.05948
C          C       0.10040   0.74136   0.96908  -0.17912
C          C       0.56268   0.57199   0.43404   0.61372
C          C       0.60149   0.64197   0.40765  -0.05542
C          C       0.54750   0.70673   0.42467  -0.10274
C          C       0.58521   0.77427   0.40453  -0.03336
C          C       0.67501   0.77681   0.36616  -0.09557
C          C       0.72868   0.71260   0.34819  -0.03715
C          C       0.69267   0.64488   0.36915  -0.09964
C          C       0.82899   0.72056   0.30983   0.54841
C          C       0.53375   0.84440   0.42435   0.56179
C          C       0.13971   0.56640   0.46794   0.13246
C          C       0.17793   0.52383   0.42320  -0.16411
C          C       0.09464   0.50248   0.38460  -0.09550
C          C       0.97662   0.52080   0.39107  -0.08474
C          C       0.93718   0.56056   0.43658  -0.16686
C          C       0.02119   0.58351   0.47453   0.08691
C          C       0.12481   0.63564   0.54216   0.25953
C          C       0.15224   0.68774   0.58696  -0.03090
C          C       0.09247   0.68937   0.63760   0.04913
C          C       0.23458   0.74293   0.57759  -0.04605
C          C       0.25242   0.79694   0.61724  -0.11584
C          C       0.18614   0.79567   0.66536   0.09558
C          C       0.90622   0.65959   0.54299  -0.05958
C          C       0.89961   0.74135   0.53092  -0.17907
N          N       0.20228   0.09941   0.98947  -0.39539
N          N       0.01390   0.12602   0.97782  -0.04972
N          N       0.10781   0.24257   0.82451  -0.21007
N          N       0.79772   0.09941   0.51054  -0.39568
N          N       0.98610   0.12602   0.52219  -0.04983
N          N       0.89221   0.24257   0.67551  -0.20925
N          N       0.20220   0.40063   0.01053  -0.39610
N          N       0.01389   0.37403   0.02224  -0.04935
N          N       0.10811   0.25757   0.17556  -0.20999
N          N       0.79780   0.40063   0.48949  -0.39631
N          N       0.98611   0.37403   0.47777  -0.04941
N          N       0.89182   0.25756   0.32448  -0.21013
N          N       0.79773   0.90059   0.01054  -0.39565
N          N       0.98610   0.87398   0.02219  -0.04967
N          N       0.89225   0.75744   0.17553  -0.20959
N          N       0.20228   0.90059   0.48948  -0.39543
N          N       0.01390   0.87398   0.47782  -0.05011
N          N       0.10785   0.75743   0.32453  -0.21024
N          N       0.79780   0.59938   0.98948  -0.39626
N          N       0.98611   0.62597   0.97777  -0.04935
N          N       0.89190   0.74244   0.82444  -0.20996
N          N       0.20221   0.59937   0.51052  -0.39623
N          N       0.01390   0.62597   0.52224  -0.04958
N          N       0.10819   0.74245   0.67552  -0.20958
O          O       0.45823   0.06684   0.04992  -0.56580
O          O       0.64099   0.02253   0.06115  -0.54151
O          O       0.86353   0.28801   0.20010  -0.55591
O          O       0.87938   0.16696   0.21089  -0.53780
O          O       0.58916   0.40349   0.07726  -0.53782
O          O       0.43451   0.33682   0.04999  -0.58333
O          O       0.54177   0.06684   0.45008  -0.56595
O          O       0.35901   0.02253   0.43885  -0.54164
O          O       0.13644   0.28801   0.29993  -0.55603
O          O       0.12059   0.16695   0.28914  -0.53758
O          O       0.41085   0.40350   0.42274  -0.53777
O          O       0.56550   0.33682   0.45001  -0.58330
O          O       0.45810   0.43312   0.94996  -0.56695
O          O       0.64075   0.47758   0.93883  -0.54193
O          O       0.86372   0.21393   0.79976  -0.55991
O          O       0.87936   0.33481   0.78895  -0.53904
O          O       0.58338   0.09614   0.91686  -0.53797
O          O       0.43454   0.16335   0.94991  -0.58351
O          O       0.54190   0.43312   0.55005  -0.56686
O          O       0.35925   0.47758   0.56118  -0.54243
O          O       0.13628   0.21393   0.70025  -0.55994
O          O       0.12065   0.33481   0.71106  -0.53891
O          O       0.41662   0.09614   0.58314  -0.53801
O          O       0.56546   0.16335   0.55009  -0.58347
O          O       0.54177   0.93316   0.95008  -0.56549
O          O       0.35901   0.97747   0.93885  -0.54150
O          O       0.13648   0.71199   0.79990  -0.55613
O          O       0.12062   0.83305   0.78912  -0.53755
O          O       0.41085   0.59651   0.92274  -0.53842
O          O       0.56550   0.66318   0.95001  -0.58307
O          O       0.45823   0.93316   0.54993  -0.56609
O          O       0.64100   0.97747   0.56115  -0.54125
O          O       0.86357   0.71199   0.70007  -0.55621
O          O       0.87942   0.83305   0.71086  -0.53701
O          O       0.58916   0.59651   0.57727  -0.53782
O          O       0.43450   0.66318   0.54999  -0.58344
O          O       0.54190   0.56688   0.05005  -0.56687
O          O       0.35925   0.52242   0.06118  -0.54240
O          O       0.13630   0.78607   0.20026  -0.55964
O          O       0.12067   0.66519   0.21107  -0.53936
O          O       0.41663   0.90386   0.08315  -0.53786
O          O       0.56545   0.83665   0.05009  -0.58357
O          O       0.45810   0.56688   0.44996  -0.56710
O          O       0.64075   0.52243   0.43882  -0.54234
O          O       0.86374   0.78607   0.29978  -0.55952
O          O       0.87938   0.66519   0.28897  -0.53941
O          O       0.58338   0.90386   0.41687  -0.53755
O          O       0.43453   0.83665   0.44991  -0.58361

