data_crystal

_audit_creation_method 'AiiDA-DDEC plugin'

_cell_length_a        20.00043
_cell_length_b        27.97250
_cell_length_c        27.94761

_cell_angle_alpha     90.00000
_cell_angle_beta     90.03463
_cell_angle_gamma     90.00000

_symmetry_space_group_name_Hall 'P 1'
_symmetry_space_group_name_H-M  'P 1'

loop_
_symmetry_equiv_pos_as_xyz
 'x,y,z'

loop_
_atom_site_label
_atom_site_type_symbol
_atom_site_fract_x
_atom_site_fract_y
_atom_site_fract_z
_atom_site_charge
Zn         Zn      0.31485   0.94372   0.61573   0.96444
Zn         Zn      0.18419   0.55637   0.11571   0.96374
Zn         Zn      0.31485   0.05628   0.61573   0.96440
Zn         Zn      0.18419   0.44363   0.11571   0.96376
Zn         Zn      0.19755   0.00000   0.56043   0.94228
Zn         Zn      0.19693  -0.00000   0.67261   0.96691
Zn         Zn      0.30121   0.50000   0.06062   0.93905
Zn         Zn      0.30346   0.50000   0.17203   0.96840
Zn         Zn      0.68514   0.94372   0.38428   0.96440
Zn         Zn      0.81580   0.55637   0.88429   0.96379
Zn         Zn      0.68514   0.05628   0.38428   0.96434
Zn         Zn      0.81580   0.44363   0.88429   0.96381
Zn         Zn      0.80245  -0.00000   0.43957   0.94204
Zn         Zn      0.80307  -0.00000   0.32740   0.96703
Zn         Zn      0.69879   0.50000   0.93938   0.93881
Zn         Zn      0.69653   0.50000   0.82797   0.96815
H          H       0.36314   0.85058   0.50359   0.12388
H          H       0.36898   0.79088   0.43696   0.11832
H          H       0.18662   0.84857   0.37801   0.12438
H          H       0.18213   0.90814   0.44453   0.11716
H          H       0.18298   0.74011   0.26817   0.12007
H          H       0.17400   0.67338   0.20894   0.12419
H          H       0.34498   0.60518   0.27191   0.12286
H          H       0.35545   0.67205   0.33081   0.12142
H          H       0.64655   0.07710   0.61975   0.11346
H          H       0.52138   0.07675   0.62291   0.12255
H          H       0.13696   0.64942   0.00363   0.12373
H          H       0.13097   0.70912   0.93695   0.12043
H          H       0.31329   0.65140   0.87808   0.12472
H          H       0.31787   0.59184   0.94459   0.11626
H          H       0.31701   0.75965   0.76830   0.11982
H          H       0.32617   0.82638   0.70902   0.12278
H          H       0.15541   0.89479   0.77185   0.12648
H          H       0.14459   0.82792   0.83073   0.12095
H          H       0.85321   0.42287   0.11974   0.11439
H          H       0.97843   0.42328   0.12292   0.12314
H          H       0.36314   0.14943   0.50359   0.12385
H          H       0.36898   0.20912   0.43696   0.11837
H          H       0.18662   0.15143   0.37801   0.12437
H          H       0.18213   0.09187   0.44453   0.11707
H          H       0.18298   0.25990   0.26817   0.12003
H          H       0.17400   0.32662   0.20894   0.12424
H          H       0.34498   0.39482   0.27191   0.12296
H          H       0.35545   0.32795   0.33081   0.12145
H          H       0.64655   0.92290   0.61975   0.11342
H          H       0.52138   0.92325   0.62291   0.12243
H          H       0.13696   0.35058   0.00363   0.12372
H          H       0.13097   0.29088   0.93695   0.12035
H          H       0.31329   0.34860   0.87808   0.12476
H          H       0.31787   0.40816   0.94459   0.11633
H          H       0.31701   0.24035   0.76830   0.11983
H          H       0.32617   0.17362   0.70902   0.12276
H          H       0.15541   0.10522   0.77185   0.12646
H          H       0.14459   0.17208   0.83073   0.12099
H          H       0.85321   0.57713   0.11974   0.11446
H          H       0.97843   0.57672   0.12292   0.12325
H          H       0.99262  -0.00000   0.68990   0.12225
H          H       0.86742   0.00000   0.69215   0.12094
H          H       0.86270   0.00000   0.53798   0.12306
H          H       0.98772   0.00000   0.53643   0.11563
H          H       0.50717   0.50000   0.18970   0.12315
H          H       0.63229   0.50000   0.19204   0.12112
H          H       0.63705   0.50000   0.03788   0.12325
H          H       0.51205   0.50000   0.03621   0.11590
H          H       0.63685   0.85058   0.49641   0.12394
H          H       0.63101   0.79088   0.56304   0.11845
H          H       0.81337   0.84857   0.62199   0.12422
H          H       0.81787   0.90814   0.55547   0.11687
H          H       0.81701   0.74011   0.73183   0.11990
H          H       0.82600   0.67338   0.79106   0.12395
H          H       0.65502   0.60518   0.72809   0.12305
H          H       0.64455   0.67205   0.66919   0.12158
H          H       0.35345   0.07710   0.38025   0.11358
H          H       0.47862   0.07675   0.37709   0.12244
H          H       0.86303   0.64942   0.99637   0.12354
H          H       0.86903   0.70912   0.06306   0.12025
H          H       0.68671   0.65140   0.12192   0.12501
H          H       0.68213   0.59184   0.05541   0.11642
H          H       0.68298   0.75965   0.23170   0.11997
H          H       0.67382   0.82638   0.29098   0.12292
H          H       0.84458   0.89479   0.22815   0.12335
H          H       0.85541   0.82792   0.16927   0.12084
H          H       0.14679   0.42287   0.88026   0.11427
H          H       0.02156   0.42328   0.87708   0.12331
H          H       0.63685   0.14943   0.49641   0.12395
H          H       0.63101   0.20912   0.56304   0.11848
H          H       0.81337   0.15143   0.62199   0.12419
H          H       0.81787   0.09187   0.55547   0.11682
H          H       0.81701   0.25990   0.73183   0.11978
H          H       0.82600   0.32662   0.79106   0.12398
H          H       0.65502   0.39482   0.72809   0.12312
H          H       0.64455   0.32795   0.66919   0.12160
H          H       0.35345   0.92290   0.38025   0.11354
H          H       0.47862   0.92325   0.37709   0.12234
H          H       0.86303   0.35058   0.99637   0.12354
H          H       0.86903   0.29088   0.06306   0.12023
H          H       0.68671   0.34860   0.12192   0.12500
H          H       0.68213   0.40816   0.05541   0.11650
H          H       0.68298   0.24035   0.23170   0.12004
H          H       0.67382   0.17362   0.29098   0.12295
H          H       0.84458   0.10522   0.22815   0.12330
H          H       0.85541   0.17208   0.16927   0.12083
H          H       0.14679   0.57713   0.88026   0.11437
H          H       0.02156   0.57672   0.87708   0.12339
H          H       0.00737   0.00000   0.31010   0.12263
H          H       0.13257   0.00000   0.30785   0.12082
H          H       0.13729   0.00000   0.46202   0.12301
H          H       0.01227   0.00000   0.46357   0.11582
H          H       0.49282   0.50000   0.81030   0.12288
H          H       0.36770   0.50000   0.80796   0.12114
H          H       0.36295   0.50000   0.96213   0.12347
H          H       0.48794   0.50000   0.96379   0.11594
C          C       0.26569   0.91567   0.51958   0.59727
C          C       0.27181   0.88233   0.47826  -0.04687
C          C       0.32512   0.84969   0.47578  -0.09030
C          C       0.32830   0.81660   0.43875  -0.13785
C          C       0.27765   0.81527   0.40338   0.13943
C          C       0.22529   0.84924   0.40536  -0.13375
C          C       0.22262   0.88230   0.44237  -0.08629
C          C       0.27754   0.77960   0.36751  -0.10144
C          C       0.27458   0.74790   0.33744  -0.10204
C          C       0.26988   0.71056   0.30348   0.14227
C          C       0.21846   0.71066   0.26868  -0.13371
C          C       0.21336   0.67357   0.23579  -0.08966
C          C       0.25889   0.63532   0.23691  -0.04722
C          C       0.31008   0.63498   0.27139  -0.09082
C          C       0.31585   0.67213   0.30414  -0.13749
C          C       0.25290   0.59533   0.20184   0.59654
C          C       0.61888   0.04362   0.62067  -0.13179
C          C       0.54941   0.04344   0.62241  -0.08674
C          C       0.23387   0.58442   0.01967   0.59512
C          C       0.22821   0.61777   0.97834  -0.04589
C          C       0.17491   0.65038   0.97579  -0.09074
C          C       0.17168   0.68342   0.93875  -0.13933
C          C       0.22232   0.68472   0.90342   0.14067
C          C       0.27467   0.65074   0.90543  -0.13553
C          C       0.27739   0.61770   0.94247  -0.08507
C          C       0.22243   0.72037   0.86757  -0.10307
C          C       0.22543   0.75205   0.83749  -0.10059
C          C       0.23015   0.78931   0.80350   0.14102
C          C       0.28158   0.78913   0.76874  -0.13450
C          C       0.28680   0.82621   0.73584  -0.08708
C          C       0.24143   0.86455   0.73713  -0.04894
C          C       0.19014   0.86490   0.77145  -0.09312
C          C       0.18421   0.82775   0.80413  -0.13603
C          C       0.24735   0.90490   0.70256   0.59909
C          C       0.88086   0.45636   0.12067  -0.13287
C          C       0.95030   0.45655   0.12242  -0.08843
C          C       0.26569   0.08434   0.51958   0.59727
C          C       0.27181   0.11768   0.47826  -0.04711
C          C       0.32512   0.15031   0.47578  -0.09010
C          C       0.32830   0.18340   0.43875  -0.13792
C          C       0.27765   0.18473   0.40338   0.13953
C          C       0.22529   0.15077   0.40536  -0.13380
C          C       0.22262   0.11770   0.44237  -0.08613
C          C       0.27754   0.22040   0.36751  -0.10151
C          C       0.27458   0.25210   0.33744  -0.10200
C          C       0.26988   0.28944   0.30348   0.14226
C          C       0.21846   0.28934   0.26868  -0.13378
C          C       0.21336   0.32643   0.23579  -0.08973
C          C       0.25889   0.36468   0.23691  -0.04715
C          C       0.31008   0.36503   0.27139  -0.09083
C          C       0.31585   0.32787   0.30414  -0.13753
C          C       0.25290   0.40467   0.20184   0.59649
C          C       0.61888   0.95638   0.62067  -0.13182
C          C       0.54941   0.95656   0.62241  -0.08661
C          C       0.23387   0.41558   0.01967   0.59510
C          C       0.22821   0.38223   0.97834  -0.04593
C          C       0.17491   0.34962   0.97579  -0.09072
C          C       0.17168   0.31658   0.93875  -0.13929
C          C       0.22232   0.31528   0.90342   0.14064
C          C       0.27467   0.34926   0.90543  -0.13558
C          C       0.27739   0.38230   0.94247  -0.08509
C          C       0.22243   0.27963   0.86757  -0.10304
C          C       0.22543   0.24795   0.83749  -0.10065
C          C       0.23015   0.21069   0.80350   0.14108
C          C       0.28158   0.21087   0.76874  -0.13436
C          C       0.28680   0.17379   0.73584  -0.08714
C          C       0.24143   0.13545   0.73713  -0.04886
C          C       0.19014   0.13511   0.77145  -0.09322
C          C       0.18421   0.17225   0.80413  -0.13607
C          C       0.24735   0.09510   0.70256   0.59903
C          C       0.88086   0.54364   0.12067  -0.13288
C          C       0.95030   0.54346   0.12242  -0.08845
C          C       0.07202  -0.00000   0.61252   0.59180
C          C       0.99755   0.00000   0.61310  -0.05361
C          C       0.96351   0.00000   0.65706  -0.08926
C          C       0.89410   0.00000   0.65826  -0.14039
C          C       0.85703   0.00000   0.61519   0.13995
C          C       0.89141   0.00000   0.57105  -0.12833
C          C       0.96091   0.00000   0.57024  -0.08465
C          C       0.78627   0.00000   0.61639  -0.10187
C          C       0.72526   0.00000   0.61789  -0.08189
C          C       0.65447   0.00000   0.61971   0.13901
C          C       0.51412  -0.00000   0.62315  -0.05187
C          C       0.43958  -0.00000   0.62361   0.59735
C          C       0.42758   0.50000   0.11230   0.59169
C          C       0.50212   0.50000   0.11288  -0.05167
C          C       0.53624   0.50000   0.15686  -0.09143
C          C       0.60565   0.50000   0.15812  -0.14084
C          C       0.64273   0.50000   0.11509   0.14028
C          C       0.60834   0.50000   0.07092  -0.12814
C          C       0.53881   0.50000   0.07006  -0.08528
C          C       0.71350   0.50000   0.11637  -0.10152
C          C       0.77448   0.50000   0.11788  -0.08283
C          C       0.84528   0.50000   0.11971   0.14099
C          C       0.98550   0.50000   0.12316  -0.04997
C          C       0.05990   0.50000   0.12361   0.59408
C          C       0.73431   0.91567   0.48042   0.59700
C          C       0.72819   0.88233   0.52175  -0.04688
C          C       0.67488   0.84969   0.52422  -0.09004
C          C       0.67169   0.81660   0.56125  -0.13776
C          C       0.72234   0.81527   0.59662   0.13955
C          C       0.77470   0.84924   0.59464  -0.13392
C          C       0.77737   0.88230   0.55763  -0.08626
C          C       0.72245   0.77960   0.63249  -0.10131
C          C       0.72541   0.74790   0.66256  -0.10216
C          C       0.73011   0.71056   0.69652   0.14235
C          C       0.78154   0.71066   0.73132  -0.13395
C          C       0.78664   0.67357   0.76421  -0.08953
C          C       0.74111   0.63532   0.76309  -0.04729
C          C       0.68992   0.63498   0.72861  -0.09075
C          C       0.68414   0.67213   0.69586  -0.13739
C          C       0.74709   0.59533   0.79817   0.59665
C          C       0.38112   0.04362   0.37933  -0.13163
C          C       0.45058   0.04344   0.37760  -0.08683
C          C       0.76613   0.58442   0.98033   0.59506
C          C       0.77179   0.61777   0.02166  -0.04589
C          C       0.82508   0.65038   0.02421  -0.09084
C          C       0.82832   0.68342   0.06125  -0.13942
C          C       0.77767   0.68472   0.09658   0.14070
C          C       0.72532   0.65074   0.09457  -0.13547
C          C       0.72261   0.61770   0.05753  -0.08500
C          C       0.77757   0.72037   0.13243  -0.10316
C          C       0.77456   0.75205   0.16251  -0.10055
C          C       0.76984   0.78931   0.19650   0.14090
C          C       0.71841   0.78913   0.23126  -0.13442
C          C       0.71320   0.82621   0.26416  -0.08681
C          C       0.75857   0.86455   0.26287  -0.04883
C          C       0.80985   0.86490   0.22855  -0.09079
C          C       0.81579   0.82775   0.19587  -0.13608
C          C       0.75264   0.90490   0.29744   0.59903
C          C       0.11914   0.45636   0.87933  -0.13300
C          C       0.04969   0.45655   0.87759  -0.08838
C          C       0.73431   0.08434   0.48042   0.59706
C          C       0.72819   0.11768   0.52175  -0.04687
C          C       0.67488   0.15031   0.52422  -0.09007
C          C       0.67169   0.18340   0.56125  -0.13776
C          C       0.72234   0.18473   0.59662   0.13962
C          C       0.77470   0.15077   0.59464  -0.13376
C          C       0.77737   0.11770   0.55763  -0.08640
C          C       0.72245   0.22040   0.63249  -0.10131
C          C       0.72541   0.25210   0.66256  -0.10220
C          C       0.73011   0.28944   0.69652   0.14233
C          C       0.78154   0.28934   0.73132  -0.13386
C          C       0.78664   0.32643   0.76421  -0.08963
C          C       0.74111   0.36468   0.76309  -0.04738
C          C       0.68992   0.36503   0.72861  -0.09066
C          C       0.68414   0.32787   0.69586  -0.13742
C          C       0.74709   0.40467   0.79817   0.59663
C          C       0.38112   0.95638   0.37933  -0.13164
C          C       0.45058   0.95656   0.37760  -0.08675
C          C       0.76613   0.41558   0.98033   0.59500
C          C       0.77179   0.38223   0.02166  -0.04600
C          C       0.82508   0.34962   0.02421  -0.09083
C          C       0.82832   0.31658   0.06125  -0.13947
C          C       0.77767   0.31528   0.09658   0.14072
C          C       0.72532   0.34926   0.09457  -0.13545
C          C       0.72261   0.38230   0.05753  -0.08503
C          C       0.77757   0.27963   0.13243  -0.10314
C          C       0.77456   0.24795   0.16251  -0.10054
C          C       0.76984   0.21069   0.19650   0.14089
C          C       0.71841   0.21087   0.23126  -0.13436
C          C       0.71320   0.17379   0.26416  -0.08689
C          C       0.75857   0.13545   0.26287  -0.04882
C          C       0.80985   0.13511   0.22855  -0.09090
C          C       0.81579   0.17225   0.19587  -0.13597
C          C       0.75264   0.09510   0.29744   0.59904
C          C       0.11914   0.54364   0.87933  -0.13298
C          C       0.04969   0.54346   0.87759  -0.08841
C          C       0.92797   0.00000   0.38748   0.59193
C          C       0.00244   0.00000   0.38690  -0.05381
C          C       0.03649   0.00000   0.34294  -0.08953
C          C       0.10590   0.00000   0.34174  -0.14050
C          C       0.14296   0.00000   0.38481   0.13971
C          C       0.10859   0.00000   0.42896  -0.12827
C          C       0.03908   0.00000   0.42976  -0.08451
C          C       0.21373   0.00000   0.38361  -0.10157
C          C       0.27473   0.00000   0.38211  -0.08203
C          C       0.34552   0.00000   0.38029   0.13887
C          C       0.48588   0.00000   0.37685  -0.05210
C          C       0.56041   0.00000   0.37639   0.59746
C          C       0.57241   0.50000   0.88770   0.59170
C          C       0.49787   0.50000   0.88712  -0.05160
C          C       0.46375   0.50000   0.84314  -0.09138
C          C       0.39434   0.50000   0.84188  -0.14070
C          C       0.35727   0.50000   0.88491   0.14049
C          C       0.39165   0.50000   0.92908  -0.12801
C          C       0.46119   0.50000   0.92994  -0.08561
C          C       0.28649   0.50000   0.88363  -0.10192
C          C       0.22551   0.50000   0.88212  -0.08243
C          C       0.15471   0.50000   0.88029   0.14092
C          C       0.01449   0.50000   0.87684  -0.05000
C          C       0.94009   0.50000   0.87640   0.59392
O          O       0.30975   0.91203   0.55264  -0.54938
O          O       0.21613   0.94463   0.51902  -0.54923
O          O       0.20886   0.59985   0.16889  -0.54668
O          O       0.29255   0.55980   0.20773  -0.55187
O          O       0.41045   0.04076   0.62371  -0.54977
O          O       0.18988   0.58819   0.05274  -0.54881
O          O       0.28291   0.55507   0.01901  -0.54749
O          O       0.28988   0.90022   0.66872  -0.54958
O          O       0.20903   0.94091   0.70974  -0.55080
O          O       0.08896   0.45923   0.12370  -0.54762
O          O       0.30975   0.08797   0.55264  -0.54931
O          O       0.21613   0.05537   0.51902  -0.54928
O          O       0.20886   0.40015   0.16889  -0.54672
O          O       0.29255   0.44020   0.20773  -0.55180
O          O       0.41045   0.95925   0.62371  -0.54983
O          O       0.18988   0.41181   0.05274  -0.54887
O          O       0.28291   0.44493   0.01901  -0.54735
O          O       0.28988   0.09978   0.66872  -0.54951
O          O       0.20903   0.05909   0.70974  -0.55090
O          O       0.08896   0.54077   0.12370  -0.54754
O          O       0.25598   0.00000   0.61663  -1.00837
O          O       0.10144  -0.00000   0.65311  -0.55299
O          O       0.10082   0.00000   0.57154  -0.53796
O          O       0.24275   0.50000   0.11670  -1.00824
O          O       0.39833   0.50000   0.15293  -0.55223
O          O       0.39834   0.50000   0.07147  -0.53815
O          O       0.69024   0.91203   0.44736  -0.54902
O          O       0.78386   0.94463   0.48098  -0.54930
O          O       0.79113   0.59985   0.83111  -0.54696
O          O       0.70745   0.55980   0.79227  -0.55168
O          O       0.58954   0.04076   0.37629  -0.54974
O          O       0.81012   0.58819   0.94726  -0.54917
O          O       0.71709   0.55507   0.98100  -0.54707
O          O       0.71011   0.90022   0.33128  -0.54926
O          O       0.79096   0.94091   0.29027  -0.55077
O          O       0.91104   0.45923   0.87631  -0.54755
O          O       0.69024   0.08797   0.44736  -0.54900
O          O       0.78386   0.05537   0.48098  -0.54938
O          O       0.79113   0.40015   0.83111  -0.54695
O          O       0.70745   0.44020   0.79227  -0.55160
O          O       0.58954   0.95925   0.37629  -0.54980
O          O       0.81012   0.41181   0.94726  -0.54916
O          O       0.71709   0.44493   0.98100  -0.54695
O          O       0.71011   0.09978   0.33128  -0.54924
O          O       0.79096   0.05909   0.29027  -0.55084
O          O       0.91104   0.54077   0.87631  -0.54741
O          O       0.74402   0.00000   0.38337  -1.00835
O          O       0.89855   0.00000   0.34689  -0.55317
O          O       0.89917   0.00000   0.42846  -0.53776
O          O       0.75725   0.50000   0.88330  -1.00811
O          O       0.60166   0.50000   0.84707  -0.55232
O          O       0.60166   0.50000   0.92853  -0.53811

