data_crystal

_audit_creation_method 'AiiDA-DDEC plugin'

_cell_length_a         9.46930
_cell_length_b        19.36674
_cell_length_c        22.85449

_cell_angle_alpha     80.53071
_cell_angle_beta     78.14832
_cell_angle_gamma     75.94768

_symmetry_space_group_name_Hall 'P 1'
_symmetry_space_group_name_H-M  'P 1'

loop_
_symmetry_equiv_pos_as_xyz
 'x,y,z'

loop_
_atom_site_label
_atom_site_type_symbol
_atom_site_fract_x
_atom_site_fract_y
_atom_site_fract_z
_atom_site_charge
Cu         Cu      0.83588   0.77052   0.53607   0.30283
Cu         Cu      0.85023   0.92106   0.63460   0.30501
Cu         Cu      0.90913   0.72979   0.69575   0.30102
Cu         Cu      0.35679   0.27113   0.03628   0.30115
Cu         Cu      0.09564   0.42274   0.13439   0.30577
Cu         Cu      0.16552   0.23028   0.19293   0.28979
Cu         Cu      0.64321   0.72887   0.96372   0.30115
Cu         Cu      0.90436   0.57725   0.86561   0.30580
Cu         Cu      0.83449   0.76972   0.80707   0.28977
Cu         Cu      0.16412   0.22948   0.46393   0.30278
Cu         Cu      0.14978   0.07894   0.36540   0.30501
Cu         Cu      0.09087   0.27020   0.30425   0.30099
H          H       0.00632   0.98307   0.20343   0.11693
H          H       0.92951   0.87118   0.25397   0.11833
H          H       0.49120   0.99365   0.31181   0.11109
H          H       0.56856   0.10491   0.26432   0.09622
H          H       0.05806   0.08674   0.23425   0.10155
H          H       0.83568   0.28214   0.15107   0.11099
H          H       0.09101   0.85450   0.52074   0.09709
H          H       0.15543   0.93921   0.66910   0.10016
H          H       0.42368   0.91003   0.59244   0.08783
H          H       0.50407   0.94665   0.49596   0.11802
H          H       0.30209   0.78394   0.46179   0.12466
H          H       0.46168   0.77870   0.36167   0.11645
H          H       0.67351   0.93621   0.39914   0.11988
H          H       0.89652   0.53984   0.06232   0.12079
H          H       0.02845   0.55317   0.22474   0.11070
H          H       0.73939   0.66753   0.10438   0.12133
H          H       0.84905   0.61888   0.29749   0.12082
H          H       0.76067   0.76291   0.13706   0.12706
H          H       0.66737   0.86312   0.19771   0.12762
H          H       0.76446   0.72098   0.35764   0.12846
H          H       0.65360   0.18522   0.17302   0.12182
H          H       0.30686   0.48271   0.70270   0.11741
H          H       0.44484   0.37083   0.75320   0.11794
H          H       0.70297   0.49349   0.81160   0.10873
H          H       0.56202   0.60468   0.76421   0.09559
H          H       0.12057   0.58596   0.73482   0.10072
H          H       0.22841   0.78206   0.65201   0.11066
H          H       0.03374   0.35479   0.02054   0.09831
H          H       0.73885   0.43916   0.16925   0.10178
H          H       0.57491   0.41076   0.09245   0.09001
H          H       0.55357   0.44687   0.99561   0.11645
H          H       0.95148   0.28439   0.96177   0.12238
H          H       0.89682   0.27888   0.86165   0.11679
H          H       0.49107   0.43617   0.89871   0.11840
H          H       0.00150   0.03946   0.56234   0.12054
H          H       0.69444   0.05188   0.72457   0.11070
H          H       0.98753   0.16741   0.60451   0.12311
H          H       0.73550   0.11837   0.79741   0.12098
H          H       0.83763   0.26269   0.63693   0.12634
H          H       0.76909   0.36300   0.69750   0.12735
H          H       0.65704   0.22060   0.85747   0.12930
H          H       0.48648   0.68539   0.67260   0.12056
H          H       0.69314   0.51728   0.29730   0.11740
H          H       0.55516   0.62917   0.24680   0.11774
H          H       0.29703   0.50650   0.18840   0.10877
H          H       0.43799   0.39531   0.23579   0.09578
H          H       0.87943   0.41404   0.26518   0.10069
H          H       0.77160   0.21794   0.34798   0.11082
H          H       0.96627   0.64521   0.97946   0.09815
H          H       0.26115   0.56084   0.83075   0.10180
H          H       0.42509   0.58924   0.90755   0.09000
H          H       0.44644   0.55313   0.00439   0.11675
H          H       0.04852   0.71561   0.03823   0.12226
H          H       0.10318   0.72112   0.13835   0.11672
H          H       0.50894   0.56383   0.10129   0.11845
H          H      -0.00150   0.96053   0.43766   0.12041
H          H       0.30556   0.94812   0.27543   0.11079
H          H       0.01247   0.83258   0.39549   0.12323
H          H       0.26450   0.88163   0.20259   0.12081
H          H       0.16237   0.73730   0.36307   0.12635
H          H       0.23091   0.63699   0.30250   0.12742
H          H       0.34297   0.77939   0.14253   0.12928
H          H       0.51352   0.31461   0.32740   0.12065
H          H       0.99368   0.01693   0.79657   0.11687
H          H       0.07049   0.12882   0.74603   0.11821
H          H       0.50881   0.00635   0.68819   0.11108
H          H       0.43144   0.89508   0.73568   0.09646
H          H       0.94194   0.91325   0.76575   0.10139
H          H       0.16432   0.71785   0.84893   0.11112
H          H       0.90899   0.14550   0.47926   0.09709
H          H       0.84458   0.06079   0.33090   0.10025
H          H       0.57633   0.08997   0.40756   0.08784
H          H       0.49593   0.05335   0.50404   0.11817
H          H       0.69792   0.21605   0.53821   0.12445
H          H       0.53832   0.22130   0.63833   0.11624
H          H       0.32649   0.06378   0.60086   0.11997
H          H       0.10349   0.46015   0.93768   0.12075
H          H       0.97156   0.44682   0.77526   0.11066
H          H       0.26061   0.33246   0.89562   0.12144
H          H       0.15095   0.38111   0.70251   0.12058
H          H       0.23933   0.23709   0.86294   0.12704
H          H       0.33263   0.13688   0.80229   0.12772
H          H       0.23554   0.27901   0.64236   0.12848
H          H       0.34640   0.81478   0.82698   0.12185
W          W       0.71243   0.81839   0.63840   0.23658
W          W       0.33094   0.31957   0.13853   0.24416
W          W       0.66906   0.68043   0.86147   0.24410
W          W       0.28757   0.18161   0.36160   0.23668
C          C       0.70516   0.92440   0.28580   0.16703
C          C       0.89393   0.98514   0.22743  -0.16752
C          C       0.85069   0.92235   0.25546  -0.15650
C          C       0.60371   0.99072   0.28742  -0.16042
C          C       0.79292   0.05109   0.23070   0.14708
C          C       0.64735   0.05381   0.26037  -0.13836
C          C       0.97708   0.12648   0.21262   0.07785
C          C       0.85618   0.22687   0.17101  -0.03464
C          C       0.14358   0.87287   0.55127   0.08153
C          C       0.18183   0.91690   0.62691  -0.04193
C          C       0.31454   0.90530   0.58832  -0.11180
C          C       0.39011   0.86722   0.48480   0.14363
C          C       0.49577   0.90936   0.46686  -0.14426
C          C       0.38131   0.81836   0.44759  -0.15427
C          C       0.47254   0.81482   0.39140  -0.16375
C          C       0.59066   0.90377   0.41206  -0.16153
C          C       0.57671   0.85831   0.37259   0.17064
C          C       0.70924   0.79922   0.28186   0.16673
C          C       0.90150   0.56179   0.10222  -0.03476
C          C       0.97133   0.56531   0.18666   0.06903
C          C       0.82217   0.62482   0.12275  -0.10004
C          C       0.81391   0.68408   0.21294   0.13718
C          C       0.81107   0.67246   0.27530  -0.16615
C          C       0.76220   0.75313   0.18521  -0.15257
C          C       0.70822   0.80974   0.21959  -0.15926
C          C       0.76073   0.72978   0.30960  -0.15110
C          C       0.76410   0.17958   0.18197  -0.09817
C          C       0.58391   0.42415   0.78548   0.16799
C          C       0.39304   0.48483   0.72689  -0.16664
C          C       0.47093   0.42204   0.75492  -0.15714
C          C       0.61762   0.49050   0.78719  -0.15574
C          C       0.42477   0.55083   0.73040   0.14750
C          C       0.53800   0.55359   0.76018  -0.14073
C          C       0.18306   0.62588   0.71311   0.07816
C          C       0.24405   0.72666   0.67166  -0.03202
C          C       0.93282   0.37340   0.05109   0.07843
C          C       0.77616   0.41723   0.12686  -0.04209
C          C       0.69294   0.40593   0.08823  -0.11440
C          C       0.75775   0.36765   0.98466   0.14098
C          C       0.62797   0.40957   0.96659  -0.14234
C          C       0.85215   0.31872   0.94752  -0.15125
C          C       0.82040   0.31498   0.89133  -0.16527
C          C       0.59322   0.40378   0.91179  -0.16091
C          C       0.69166   0.35828   0.87240   0.17494
C          C       0.70850   0.29898   0.78167   0.17120
C          C       0.93462   0.06123   0.60224  -0.03619
C          C       0.77720   0.06433   0.68658   0.06328
C          C       0.92967   0.12443   0.62278  -0.10422
C          C       0.78845   0.18361   0.71282   0.13258
C          C       0.74111   0.17205   0.77518  -0.16599
C          C       0.79787   0.25281   0.68506  -0.15101
C          C       0.76054   0.30952   0.71939  -0.16130
C          C       0.69950   0.22944   0.80943  -0.15425
C          C       0.37291   0.67949   0.68191  -0.09854
C          C       0.41609   0.57585   0.21452   0.16798
C          C       0.60696   0.51516   0.27311  -0.16668
C          C       0.52907   0.57796   0.24508  -0.15717
C          C       0.38238   0.50950   0.21281  -0.15580
C          C       0.57523   0.44916   0.26960   0.14738
C          C       0.46201   0.44641   0.23982  -0.14068
C          C       0.81694   0.37411   0.28689   0.07795
C          C       0.75596   0.27334   0.32834  -0.03188
C          C       0.06719   0.62660   0.94891   0.07834
C          C       0.22385   0.58276   0.87314  -0.04194
C          C       0.30706   0.59407   0.91177  -0.11442
C          C       0.24226   0.63235   0.01534   0.14101
C          C       0.37203   0.59042   0.03340  -0.14246
C          C       0.14785   0.68127   0.05247  -0.15116
C          C       0.17961   0.68501   0.10867  -0.16570
C          C       0.40679   0.59622   0.08821  -0.16089
C          C       0.30834   0.64172   0.12760   0.17514
C          C       0.29150   0.70102   0.21833   0.17114
C          C       0.06539   0.93876   0.39776  -0.03583
C          C       0.22280   0.93567   0.31342   0.06713
C          C       0.07033   0.87556   0.37722  -0.10004
C          C       0.21155   0.81639   0.28718   0.13847
C          C       0.25889   0.82795   0.22482  -0.16625
C          C       0.20214   0.74718   0.31494  -0.15145
C          C       0.23947   0.69048   0.28061  -0.16107
C          C       0.30050   0.77056   0.19057  -0.15435
C          C       0.62710   0.32051   0.31809  -0.09872
C          C       0.29484   0.07559   0.71420   0.16707
C          C       0.10607   0.01485   0.77257  -0.16753
C          C       0.14931   0.07765   0.74454  -0.15668
C          C       0.39630   0.00928   0.71258  -0.16039
C          C       0.20708   0.94890   0.76930   0.14723
C          C       0.35266   0.94619   0.73963  -0.13832
C          C       0.02292   0.87352   0.78738   0.07777
C          C       0.14382   0.77313   0.82899  -0.03449
C          C       0.85642   0.12712   0.44873   0.08132
C          C       0.81817   0.08310   0.37309  -0.04179
C          C       0.68546   0.09469   0.41168  -0.11179
C          C       0.60989   0.13277   0.51520   0.14353
C          C       0.50423   0.09064   0.53313  -0.14412
C          C       0.61869   0.18164   0.55241  -0.15405
C          C       0.52746   0.18518   0.60860  -0.16384
C          C       0.40934   0.09622   0.58794  -0.16150
C          C       0.42329   0.14168   0.62741   0.17062
C          C       0.29076   0.20077   0.71814   0.16664
C          C       0.09850   0.43821   0.89777  -0.03489
C          C       0.02867   0.43469   0.81334   0.06904
C          C       0.17783   0.37517   0.87725  -0.10008
C          C       0.18610   0.31592   0.78706   0.13710
C          C       0.18893   0.32754   0.72470  -0.16595
C          C       0.23780   0.24687   0.81479  -0.15255
C          C       0.29179   0.19025   0.78041  -0.15915
C          C       0.23927   0.27021   0.69040  -0.15115
C          C       0.23590   0.82041   0.81803  -0.09818
S          S       0.75863   0.88918   0.55321  -0.37688
S          S       0.75152   0.85209   0.72099  -0.40839
S          S       0.77032   0.70318   0.62623  -0.33531
S          S       0.29934   0.39012   0.05324  -0.37420
S          S       0.17689   0.35473   0.22073  -0.40692
S          S       0.40227   0.20428   0.12605  -0.33650
S          S       0.70066   0.60988   0.94676  -0.37402
S          S       0.82311   0.64527   0.77927  -0.40671
S          S       0.59773   0.79571   0.87395  -0.33682
S          S       0.24137   0.11082   0.44679  -0.37673
S          S       0.24848   0.14791   0.27901  -0.40813
S          S       0.22968   0.29682   0.37377  -0.33567
Br         Br      0.93305   0.71751   0.44857  -0.47865
Br         Br      0.40483   0.21833   0.94835  -0.47780
Br         Br      0.59518   0.78167   0.05165  -0.47791
Br         Br      0.06695   0.28249   0.55143  -0.47875
N          N       0.07650   0.89644   0.60368  -0.26269
N          N       0.28925   0.87748   0.53987   0.02753
N          N       0.66331   0.85959   0.31426  -0.14247
N          N       0.99381   0.52480   0.14227  -0.24880
N          N       0.86677   0.62677   0.17668   0.02189
N          N       0.98846   0.19331   0.19058  -0.22357
N          N       0.84263   0.11560   0.20794   0.02491
N          N       0.92482   0.39681   0.10354  -0.26504
N          N       0.79376   0.37817   0.03968   0.03098
N          N       0.66182   0.35936   0.81406  -0.14811
N          N       0.83992   0.02386   0.64223  -0.24790
N          N       0.82949   0.12614   0.67666   0.03419
N          N       0.12629   0.69278   0.69157  -0.22900
N          N       0.33308   0.61528   0.70783   0.02604
N          N       0.07518   0.60319   0.89646  -0.26491
N          N       0.20624   0.62183   0.96031   0.03103
N          N       0.33818   0.64063   0.18594  -0.14793
N          N       0.16008   0.97614   0.35777  -0.24770
N          N       0.17051   0.87386   0.32334   0.02008
N          N       0.87371   0.30721   0.30842  -0.22888
N          N       0.66692   0.38472   0.29217   0.02616
N          N       0.92351   0.10356   0.39632  -0.26265
N          N       0.71075   0.12252   0.46013   0.02747
N          N       0.33669   0.14041   0.68574  -0.14257
N          N       0.00619   0.47520   0.85773  -0.24907
N          N       0.13323   0.37323   0.82332   0.02211
N          N       0.01154   0.80669   0.80942  -0.22343
N          N       0.15737   0.88439   0.79206   0.02472

