data_crystal

_audit_creation_method 'AiiDA-DDEC plugin'

_cell_length_a        16.79857
_cell_length_b        32.34958
_cell_length_c        32.34970

_cell_angle_alpha     120.11735
_cell_angle_beta     90.00000
_cell_angle_gamma     90.00000

_symmetry_space_group_name_Hall 'P 1'
_symmetry_space_group_name_H-M  'P 1'

loop_
_symmetry_equiv_pos_as_xyz
 'x,y,z'

loop_
_atom_site_label
_atom_site_type_symbol
_atom_site_fract_x
_atom_site_fract_y
_atom_site_fract_z
_atom_site_charge
Mg         Mg      0.50000   0.70055   0.29945   1.57099
Mg         Mg      0.50000   0.59876   0.29938   1.57218
Mg         Mg      0.50000   0.70062   0.40124   1.57215
Mg         Mg      0.50000   0.29945   0.70055   1.57109
Mg         Mg      0.50000   0.40124   0.70062   1.57223
Mg         Mg      0.50000   0.29938   0.59876   1.57222
H          H       0.68025   0.80660   0.33714   0.12270
H          H       0.78576   0.87046   0.36883   0.11321
H          H       0.68043   0.53052   0.19329   0.12253
H          H       0.78595   0.49825   0.12943   0.11534
H          H       0.68045   0.66291   0.46961   0.12223
H          H       0.78576   0.63131   0.50180   0.11530
H          H       0.68025   0.19340   0.66285   0.12255
H          H       0.78576   0.12954   0.63116   0.11303
H          H       0.68043   0.46948   0.80671   0.12266
H          H       0.78595   0.50175   0.87057   0.11530
H          H       0.68045   0.33709   0.53039   0.12232
H          H       0.78576   0.36869   0.49820   0.11539
H          H       0.31955   0.46961   0.66291   0.12221
H          H       0.21424   0.50180   0.63131   0.11530
H          H       0.31975   0.33714   0.80660   0.12266
H          H       0.21424   0.36883   0.87046   0.11307
H          H       0.31957   0.19329   0.53052   0.12266
H          H       0.21405   0.12943   0.49825   0.11543
H          H       0.31955   0.53039   0.33709   0.12228
H          H       0.21424   0.49820   0.36869   0.11536
H          H       0.31975   0.66286   0.19340   0.12266
H          H       0.21424   0.63117   0.12954   0.11318
H          H       0.31957   0.80671   0.46948   0.12253
H          H       0.21405   0.87057   0.50175   0.11529
H          H       0.31975   0.19340   0.66285   0.12255
H          H       0.21424   0.12954   0.63116   0.11307
H          H       0.31957   0.46948   0.80671   0.12265
H          H       0.21405   0.50175   0.87057   0.11531
H          H       0.31955   0.33709   0.53039   0.12231
H          H       0.21424   0.36869   0.49820   0.11543
H          H       0.31975   0.80660   0.33714   0.12271
H          H       0.21424   0.87046   0.36883   0.11321
H          H       0.31957   0.53052   0.19329   0.12251
H          H       0.21405   0.49825   0.12943   0.11534
H          H       0.31955   0.66291   0.46961   0.12223
H          H       0.21424   0.63131   0.50180   0.11531
H          H       0.68045   0.53039   0.33709   0.12229
H          H       0.78576   0.49820   0.36869   0.11537
H          H       0.68025   0.66286   0.19340   0.12267
H          H       0.78576   0.63117   0.12954   0.11318
H          H       0.68043   0.80671   0.46948   0.12254
H          H       0.78595   0.87057   0.50175   0.11529
H          H       0.68045   0.46961   0.66291   0.12222
H          H       0.78576   0.50180   0.63131   0.11531
H          H       0.68025   0.33714   0.80660   0.12266
H          H       0.78576   0.36883   0.87046   0.11306
H          H       0.68043   0.19329   0.53052   0.12266
H          H       0.78595   0.12943   0.49825   0.11543
H          H       0.91913   0.81659   0.40829   0.13831
H          H       0.69715   0.95140   0.47571   0.14605
H          H       0.91913   0.59171   0.18341   0.13828
H          H       0.69715   0.52429   0.04860   0.14615
H          H       0.91917   0.59162   0.40838   0.13848
H          H       0.69719   0.52425   0.47575   0.14582
H          H       0.91913   0.18341   0.59170   0.13830
H          H       0.69715   0.04860   0.52429   0.14600
H          H       0.91913   0.40829   0.81659   0.13844
H          H       0.69715   0.47571   0.95140   0.14623
H          H       0.91917   0.40838   0.59162   0.13828
H          H       0.69719   0.47575   0.52425   0.14576
H          H       0.08083   0.40838   0.59162   0.13828
H          H       0.30281   0.47575   0.52425   0.14573
H          H       0.08087   0.40829   0.81659   0.13843
H          H       0.30285   0.47571   0.95140   0.14610
H          H       0.08087   0.18341   0.59170   0.13829
H          H       0.30285   0.04860   0.52429   0.14599
H          H       0.08083   0.59162   0.40838   0.13839
H          H       0.30281   0.52425   0.47575   0.14579
H          H       0.08087   0.59171   0.18341   0.13827
H          H       0.30285   0.52429   0.04860   0.14603
H          H       0.08087   0.81659   0.40829   0.13833
H          H       0.30285   0.95140   0.47571   0.14598
H          H       0.93669  -0.00000   0.50000   0.26884
H          H       0.93669   0.50000   0.00000   0.26884
H          H       0.93673   0.50000   0.50000   0.26830
H          H       0.06326   0.50000   0.50000   0.26837
H          H       0.06331   0.50000   0.00000   0.26885
H          H       0.06331  -0.00000   0.50000   0.26885
C          C       0.70366   0.82118   0.37317  -0.08941
C          C       0.76225   0.85655   0.39080  -0.15112
C          C       0.70378   0.55195   0.17875  -0.08903
C          C       0.76237   0.53417   0.14338  -0.15400
C          C       0.70375   0.62685   0.44810  -0.08835
C          C       0.76225   0.60923   0.46586  -0.15468
C          C       0.70366   0.17881   0.62683  -0.08939
C          C       0.76225   0.14345   0.60920  -0.15108
C          C       0.70378   0.44805   0.82125  -0.08897
C          C       0.76237   0.46583   0.85661  -0.15396
C          C       0.70375   0.37315   0.55190  -0.08837
C          C       0.76225   0.39076   0.53414  -0.15447
C          C       0.29625   0.44810   0.62685  -0.08843
C          C       0.23775   0.46586   0.60923  -0.15470
C          C       0.29634   0.37317   0.82118  -0.08929
C          C       0.23775   0.39080   0.85655  -0.15113
C          C       0.29622   0.17875   0.55195  -0.08901
C          C       0.23763   0.14338   0.53417  -0.15393
C          C       0.29625   0.55190   0.37315  -0.08836
C          C       0.23775   0.53414   0.39076  -0.15451
C          C       0.29634   0.62683   0.17882  -0.08941
C          C       0.23775   0.60920   0.14345  -0.15112
C          C       0.29622   0.82125   0.44805  -0.08916
C          C       0.23763   0.85662   0.46583  -0.15403
C          C       0.29633   0.17881   0.62683  -0.08940
C          C       0.23775   0.14345   0.60920  -0.15112
C          C       0.29622   0.44805   0.82125  -0.08898
C          C       0.23763   0.46583   0.85661  -0.15397
C          C       0.29625   0.37315   0.55190  -0.08830
C          C       0.23775   0.39076   0.53414  -0.15455
C          C       0.29633   0.82118   0.37317  -0.08944
C          C       0.23775   0.85655   0.39080  -0.15110
C          C       0.29622   0.55195   0.17875  -0.08894
C          C       0.23763   0.53417   0.14338  -0.15403
C          C       0.29625   0.62685   0.44810  -0.08837
C          C       0.23775   0.60923   0.46586  -0.15468
C          C       0.70375   0.55190   0.37315  -0.08832
C          C       0.76225   0.53414   0.39076  -0.15455
C          C       0.70366   0.62683   0.17882  -0.08944
C          C       0.76225   0.60920   0.14345  -0.15112
C          C       0.70378   0.82125   0.44805  -0.08918
C          C       0.76237   0.85662   0.46583  -0.15404
C          C       0.70375   0.44810   0.62685  -0.08848
C          C       0.76225   0.46586   0.60923  -0.15468
C          C       0.70366   0.37317   0.82118  -0.08925
C          C       0.76225   0.39080   0.85655  -0.15111
C          C       0.70378   0.17875   0.55195  -0.08899
C          C       0.76237   0.14338   0.53417  -0.15391
C          C       0.82887   0.95964   0.47984   0.17448
C          C       0.85517   0.91184   0.45595  -0.02676
C          C       0.61062   0.76492   0.38244   0.61904
C          C       0.93521   0.89681   0.44842   0.17687
C          C       0.67414   0.80325   0.40162  -0.03042
C          C       0.79194   0.87444   0.43725   0.06644
C          C       0.95946   0.84680   0.42341  -0.17402
C          C       0.74776   0.97537   0.48769  -0.16931
C          C       0.82887   0.52016   0.04036   0.17450
C          C       0.85517   0.54405   0.08816  -0.02663
C          C       0.61062   0.61755   0.23508   0.61907
C          C       0.93521   0.55158   0.10319   0.17684
C          C       0.67414   0.59838   0.19675  -0.03053
C          C       0.79194   0.56275   0.12556   0.06636
C          C       0.95946   0.57659   0.15320  -0.17403
C          C       0.74776   0.51231   0.02463  -0.16980
C          C       0.82891   0.52016   0.47984   0.17391
C          C       0.85513   0.54404   0.45596  -0.02692
C          C       0.61069   0.61754   0.38246   0.61884
C          C       0.93518   0.55156   0.44844   0.17640
C          C       0.67417   0.59837   0.40163  -0.03061
C          C       0.79185   0.56274   0.43726   0.06723
C          C       0.95946   0.57653   0.42347  -0.17381
C          C       0.74782   0.51229   0.48770  -0.16904
C          C       0.82887   0.04036   0.52016   0.17441
C          C       0.85517   0.08816   0.54405  -0.02665
C          C       0.61062   0.23508   0.61755   0.61917
C          C       0.93521   0.10319   0.55158   0.17685
C          C       0.67414   0.19675   0.59838  -0.03070
C          C       0.79194   0.12556   0.56275   0.06631
C          C       0.95946   0.15320   0.57659  -0.17412
C          C       0.74776   0.02463   0.51231  -0.16931
C          C       0.82887   0.47984   0.95964   0.17421
C          C       0.85517   0.45595   0.91184  -0.02658
C          C       0.61062   0.38244   0.76491   0.61913
C          C       0.93521   0.44842   0.89681   0.17694
C          C       0.67414   0.40162   0.80325  -0.03077
C          C       0.79194   0.43725   0.87443   0.06618
C          C       0.95946   0.42341   0.84680  -0.17402
C          C       0.74776   0.48769   0.97537  -0.16924
C          C       0.82891   0.47984   0.52016   0.17402
C          C       0.85513   0.45596   0.54404  -0.02696
C          C       0.61069   0.38246   0.61753   0.61888
C          C       0.93518   0.44844   0.55156   0.17636
C          C       0.67417   0.40163   0.59837  -0.03065
C          C       0.79185   0.43726   0.56273   0.06730
C          C       0.95946   0.42347   0.57652  -0.17376
C          C       0.74782   0.48770   0.51229  -0.16906
C          C       0.17109   0.47984   0.52016   0.17397
C          C       0.14487   0.45596   0.54404  -0.02687
C          C       0.38931   0.38246   0.61753   0.61891
C          C       0.06481   0.44844   0.55156   0.17638
C          C       0.32583   0.40163   0.59837  -0.03075
C          C       0.20814   0.43726   0.56273   0.06732
C          C       0.04054   0.42347   0.57652  -0.17382
C          C       0.25218   0.48770   0.51229  -0.16906
C          C       0.17113   0.47984   0.95964   0.17422
C          C       0.14482   0.45595   0.91184  -0.02656
C          C       0.38938   0.38244   0.76491   0.61920
C          C       0.06479   0.44842   0.89681   0.17697
C          C       0.32586   0.40162   0.80325  -0.03070
C          C       0.20806   0.43725   0.87443   0.06623
C          C       0.04054   0.42341   0.84680  -0.17405
C          C       0.25224   0.48769   0.97537  -0.16919
C          C       0.17113   0.04036   0.52016   0.17433
C          C       0.14482   0.08816   0.54405  -0.02666
C          C       0.38938   0.23508   0.61755   0.61925
C          C       0.06479   0.10319   0.55158   0.17684
C          C       0.32586   0.19675   0.59838  -0.03068
C          C       0.20806   0.12556   0.56275   0.06634
C          C       0.04054   0.15320   0.57659  -0.17410
C          C       0.25224   0.02463   0.51231  -0.16931
C          C       0.17109   0.52016   0.47984   0.17385
C          C       0.14487   0.54404   0.45596  -0.02688
C          C       0.38931   0.61754   0.38246   0.61886
C          C       0.06481   0.55156   0.44844   0.17644
C          C       0.32583   0.59837   0.40163  -0.03062
C          C       0.20814   0.56274   0.43726   0.06725
C          C       0.04054   0.57653   0.42347  -0.17381
C          C       0.25218   0.51229   0.48770  -0.16903
C          C       0.17113   0.52016   0.04036   0.17447
C          C       0.14482   0.54405   0.08816  -0.02664
C          C       0.38938   0.61755   0.23508   0.61912
C          C       0.06479   0.55158   0.10319   0.17688
C          C       0.32586   0.59838   0.19675  -0.03062
C          C       0.20806   0.56275   0.12556   0.06638
C          C       0.04054   0.57659   0.15320  -0.17406
C          C       0.25224   0.51231   0.02463  -0.16969
C          C       0.17113   0.95964   0.47984   0.17444
C          C       0.14482   0.91184   0.45595  -0.02675
C          C       0.38938   0.76492   0.38244   0.61906
C          C       0.06479   0.89681   0.44842   0.17694
C          C       0.32586   0.80325   0.40162  -0.03044
C          C       0.20806   0.87444   0.43725   0.06644
C          C       0.04054   0.84680   0.42341  -0.17412
C          C       0.25224   0.97537   0.48769  -0.16927
N          N       0.87592  -0.00000   0.50000  -0.25595
N          N       0.87592   0.50000   0.00000  -0.25598
N          N       0.87597   0.50000   0.50000  -0.25473
N          N       0.12403   0.50000   0.50000  -0.25477
N          N       0.12408   0.50000   0.00000  -0.25596
N          N       0.12408  -0.00000   0.50000  -0.25586
N          N       0.00000   0.92683   0.46343  -0.38856
N          N       0.00000   0.53657   0.07317  -0.38849
N          N       0.00000   0.53658   0.46342  -0.38840
N          N       0.00000   0.07317   0.53657  -0.38837
N          N       0.00000   0.46343   0.92683  -0.38881
N          N       0.00000   0.46342   0.53658  -0.38818
O          O       0.58689   0.75067   0.34000  -0.65417
O          O       0.58690   0.58934   0.24925  -0.65416
O          O       0.58696   0.66001   0.41072  -0.65469
O          O       0.58689   0.24933   0.65999  -0.65442
O          O       0.58690   0.41066   0.75075  -0.65407
O          O       0.58696   0.33999   0.58927  -0.65451
O          O       0.41304   0.41072   0.66001  -0.65480
O          O       0.41311   0.34000   0.75066  -0.65425
O          O       0.41310   0.24925   0.58933  -0.65407
O          O       0.41304   0.58928   0.33999  -0.65455
O          O       0.41311   0.66000   0.24933  -0.65425
O          O       0.41310   0.75075   0.41066  -0.65419
O          O       0.41311   0.24933   0.65999  -0.65448
O          O       0.41310   0.41066   0.75075  -0.65414
O          O       0.41304   0.33999   0.58927  -0.65453
O          O       0.41311   0.75067   0.34000  -0.65418
O          O       0.41310   0.58934   0.24925  -0.65415
O          O       0.41304   0.66001   0.41072  -0.65470
O          O       0.58696   0.58928   0.33999  -0.65454
O          O       0.58689   0.66000   0.24933  -0.65422
O          O       0.58690   0.75075   0.41066  -0.65419
O          O       0.58696   0.41072   0.66001  -0.65480
O          O       0.58689   0.34000   0.75066  -0.65421
O          O       0.58690   0.24925   0.58933  -0.65403
O          O       0.50000   0.66666   0.33334  -1.19863
O          O       0.50000   0.33334   0.66666  -1.19865

