data_crystal

_audit_creation_method 'AiiDA-DDEC plugin'

_cell_length_a        20.40429
_cell_length_b        26.23684
_cell_length_c        26.23684

_cell_angle_alpha     81.41397
_cell_angle_beta     67.29685
_cell_angle_gamma     67.29685

_symmetry_space_group_name_Hall 'P 1'
_symmetry_space_group_name_H-M  'P 1'

loop_
_symmetry_equiv_pos_as_xyz
 'x,y,z'

loop_
_atom_site_label
_atom_site_type_symbol
_atom_site_fract_x
_atom_site_fract_y
_atom_site_fract_z
_atom_site_charge
Cu         Cu      0.93903   0.49592   0.00841   0.91729
Cu         Cu      0.44399   0.50373   0.99111   0.91697
Cu         Cu      0.06096   0.99159   0.50408   0.91740
Cu         Cu      0.55600   0.00889   0.49627   0.91702
Cu         Cu      0.06096   0.50408   0.99159   0.91739
Cu         Cu      0.55600   0.49627   0.00889   0.91698
Cu         Cu      0.93903   0.00841   0.49592   0.91746
Cu         Cu      0.44400   0.99111   0.50373   0.91707
Cu         Cu      0.03513   0.46447   0.46446   0.91306
Cu         Cu      0.96486   0.53554   0.53553   0.91294
Cu         Cu      0.49999   0.03549   0.96451   0.91265
Cu         Cu      0.50000   0.96450   0.03549   0.91220
H          H       0.03218   0.54363   0.15301   0.12423
H          H       0.18670   0.34542   0.03874   0.12330
H          H       0.98690   0.57447   0.25009   0.11818
H          H       0.23756   0.24865   0.07053   0.11853
H          H       0.97973   0.32416   0.05938   0.12498
H          H       0.92973   0.53127   0.34454   0.12711
H          H       0.80597   0.55714   0.17627   0.12514
H          H       0.75988   0.58886   0.27306   0.12067
H          H       0.03043   0.22716   0.08976   0.12037
H          H       0.77036   0.67873   0.27159   0.29964
H          H       0.04106   0.22733   0.17733   0.30408
H          H       0.27358   0.15538   0.03035   0.12962
H          H       0.72845   0.45700   0.84805   0.12397
H          H       0.57052   0.65495   0.96107   0.12394
H          H       0.81108   0.42620   0.75091   0.11832
H          H       0.55605   0.75184   0.92907   0.11820
H          H       0.36354   0.67479   0.94024   0.12527
H          H       0.80539   0.46925   0.65664   0.12874
H          H       0.53998   0.44274   0.82367   0.12387
H          H       0.62223   0.41108   0.72692   0.12018
H          H       0.34726   0.77198   0.90966   0.12109
H          H       0.72062   0.32156   0.72877   0.29945
H          H       0.44519   0.77215   0.82214   0.29929
H          H       0.45878   0.84435   0.96948   0.12548
H          H       0.96781   0.84699   0.45637   0.12459
H          H       0.81330   0.96127   0.65457   0.12367
H          H       0.01309   0.74991   0.42553   0.11869
H          H       0.76243   0.92947   0.75135   0.11880
H          H       0.02026   0.94063   0.67584   0.12457
H          H       0.07026   0.65546   0.46873   0.12721
H          H       0.19403   0.82373   0.44286   0.12479
H          H       0.24011   0.72694   0.41113   0.12042
H          H       0.96956   0.91024   0.77284   0.12007
H          H       0.22963   0.72841   0.32126   0.29951
H          H       0.95894   0.82267   0.77267   0.30427
H          H       0.72641   0.96965   0.84462   0.12989
H          H       0.27154   0.15195   0.54300   0.12434
H          H       0.42947   0.03893   0.34505   0.12420
H          H       0.18891   0.24909   0.57380   0.11873
H          H       0.44394   0.07093   0.24816   0.11865
H          H       0.63645   0.05976   0.32521   0.12500
H          H       0.19460   0.34336   0.53075   0.12663
H          H       0.46001   0.17633   0.55726   0.12349
H          H       0.37777   0.27308   0.58892   0.11978
H          H       0.65273   0.09034   0.22802   0.12074
H          H       0.27937   0.27123   0.67845   0.29953
H          H       0.55480   0.17786   0.22785   0.29948
H          H       0.54121   0.03052   0.15565   0.12570
H          H       0.96781   0.45637   0.84699   0.12461
H          H       0.81329   0.65458   0.96126   0.12350
H          H       0.01309   0.42553   0.74991   0.11866
H          H       0.76243   0.75135   0.92946   0.11891
H          H       0.02026   0.67584   0.94062   0.12437
H          H       0.07026   0.46873   0.65546   0.12734
H          H       0.19403   0.44286   0.82373   0.12477
H          H       0.24011   0.41114   0.72694   0.12043
H          H       0.96956   0.77285   0.91023   0.12014
H          H       0.22963   0.32127   0.72841   0.29946
H          H       0.95894   0.77267   0.82267   0.30402
H          H       0.72640   0.84463   0.96964   0.12970
H          H       0.27154   0.54300   0.15194   0.12435
H          H       0.42947   0.34505   0.03893   0.12421
H          H       0.18891   0.57380   0.24908   0.11871
H          H       0.44394   0.24816   0.07093   0.11858
H          H       0.63645   0.32521   0.05976   0.12498
H          H       0.19460   0.53076   0.34336   0.12659
H          H       0.46001   0.55726   0.17633   0.12353
H          H       0.37777   0.58892   0.27308   0.11971
H          H       0.65273   0.22802   0.09034   0.12073
H          H       0.27937   0.67845   0.27123   0.29966
H          H       0.55480   0.22785   0.17786   0.29953
H          H       0.54121   0.15564   0.03052   0.12577
H          H       0.03218   0.15301   0.54363   0.12414
H          H       0.18670   0.03874   0.34542   0.12323
H          H       0.98690   0.25009   0.57447   0.11823
H          H       0.23756   0.07054   0.24865   0.11857
H          H       0.97973   0.05938   0.32416   0.12493
H          H       0.92973   0.34454   0.53127   0.12708
H          H       0.80597   0.17627   0.55714   0.12510
H          H       0.75988   0.27306   0.58886   0.12075
H          H       0.03043   0.08976   0.22715   0.12041
H          H       0.77036   0.27159   0.67873   0.29946
H          H       0.04106   0.17733   0.22733   0.30402
H          H       0.27359   0.03035   0.15538   0.12962
H          H       0.72845   0.84806   0.45700   0.12399
H          H       0.57052   0.96107   0.65495   0.12401
H          H       0.81108   0.75092   0.42620   0.11837
H          H       0.55605   0.92907   0.75184   0.11814
H          H       0.36355   0.94024   0.67479   0.12538
H          H       0.80539   0.65664   0.46924   0.12641
H          H       0.53998   0.82367   0.44273   0.12392
H          H       0.62223   0.72692   0.41108   0.12013
H          H       0.34726   0.90966   0.77198   0.12102
H          H       0.72062   0.72877   0.32155   0.29959
H          H       0.44519   0.82214   0.77214   0.29955
H          H       0.45878   0.96948   0.84436   0.12575
C          C       0.97284   0.55343   0.17969  -0.08723
C          C       0.15305   0.31915   0.05010  -0.08446
C          C       0.87015   0.58435   0.26829   0.09219
C          C       0.94732   0.57059   0.23391  -0.14556
C          C       0.18133   0.26506   0.06760  -0.14669
C          C       0.13756   0.23102   0.08293   0.09308
C          C       0.03596   0.30737   0.06216  -0.08981
C          C       0.07974   0.34105   0.04769  -0.04129
C          C       0.88556   0.57126   0.35912  -0.12249
C          C       0.17029   0.17392   0.10204  -0.06492
C          C       0.24382   0.14059   0.07021  -0.12218
C          C       0.84588   0.60335   0.32544  -0.06228
C          C       0.84499   0.56153   0.19267  -0.09125
C          C       0.81941   0.57942   0.24678  -0.15697
C          C       0.92175   0.54895   0.15853  -0.03881
C          C       0.06452   0.25307   0.07953  -0.15795
C          C       0.04932   0.39956   0.03026   0.58436
C          C       0.94921   0.53107   0.10028   0.58335
C          C       0.70587   0.44703   0.82106  -0.08681
C          C       0.52206   0.68100   0.94963  -0.08546
C          C       0.72274   0.41603   0.73224   0.09057
C          C       0.75165   0.42994   0.76689  -0.14527
C          C       0.51353   0.73509   0.93199  -0.14469
C          C       0.45106   0.76870   0.91663   0.08991
C          C       0.40550   0.69198   0.93746  -0.09013
C          C       0.46840   0.65881   0.95206  -0.04110
C          C       0.81557   0.42934   0.64179  -0.12374
C          C       0.44555   0.82586   0.89764  -0.06247
C          C       0.45398   0.85927   0.92963  -0.12071
C          C       0.77441   0.39710   0.67516  -0.06347
C          C       0.59956   0.43851   0.80745  -0.08988
C          C       0.64587   0.42070   0.75340  -0.15472
C          C       0.62947   0.45125   0.84184  -0.04000
C          C       0.39693   0.74629   0.91997  -0.15676
C          C       0.47904   0.60039   0.96961   0.58457
C          C       0.58087   0.46904   0.90001   0.58360
C          C       0.02716   0.82031   0.44657  -0.08714
C          C       0.84694   0.94990   0.68084  -0.08425
C          C       0.12985   0.73171   0.41564   0.09227
C          C       0.05268   0.76609   0.42941  -0.14556
C          C       0.81867   0.93240   0.73493  -0.14635
C          C       0.86244   0.91707   0.76898   0.09275
C          C       0.96403   0.93784   0.69262  -0.08991
C          C       0.92025   0.95231   0.65895  -0.04131
C          C       0.11443   0.64088   0.42874  -0.12269
C          C       0.82970   0.89796   0.82608  -0.06490
C          C       0.75617   0.92979   0.85941  -0.12225
C          C       0.15411   0.67456   0.39665  -0.06234
C          C       0.15500   0.80733   0.43847  -0.09144
C          C       0.18059   0.75322   0.42058  -0.15721
C          C       0.07825   0.84147   0.45105  -0.03881
C          C       0.93547   0.92047   0.74693  -0.15808
C          C       0.95068   0.96974   0.60044   0.58420
C          C       0.05079   0.89972   0.46893   0.58337
C          C       0.29412   0.17894   0.55297  -0.08705
C          C       0.47794   0.05037   0.31900  -0.08522
C          C       0.27725   0.26776   0.58397   0.09061
C          C       0.24834   0.23311   0.57006  -0.14499
C          C       0.48646   0.06801   0.26491  -0.14469
C          C       0.54893   0.08336   0.23130   0.09009
C          C       0.59449   0.06254   0.30802  -0.09035
C          C       0.53160   0.04793   0.34119  -0.04099
C          C       0.18443   0.35821   0.57066  -0.12213
C          C       0.55444   0.10236   0.17414  -0.06277
C          C       0.54602   0.07036   0.14074  -0.12066
C          C       0.22559   0.32484   0.60290  -0.06340
C          C       0.40043   0.19255   0.56149  -0.09014
C          C       0.35412   0.24660   0.57930  -0.15479
C          C       0.37052   0.15816   0.54875  -0.03960
C          C       0.60306   0.08003   0.25371  -0.15704
C          C       0.52095   0.03039   0.39962   0.58399
C          C       0.41912   0.09999   0.53096   0.58344
C          C       0.02716   0.44657   0.82031  -0.08738
C          C       0.84694   0.68085   0.94990  -0.08425
C          C       0.12985   0.41565   0.73171   0.09226
C          C       0.05268   0.42941   0.76609  -0.14538
C          C       0.81866   0.73494   0.93240  -0.14640
C          C       0.86243   0.76898   0.91707   0.09277
C          C       0.96403   0.69263   0.93784  -0.08971
C          C       0.92025   0.65895   0.95231  -0.04145
C          C       0.11443   0.42874   0.64088  -0.12279
C          C       0.82970   0.82609   0.89796  -0.06484
C          C       0.75617   0.85941   0.92979  -0.12233
C          C       0.15411   0.39665   0.67455  -0.06219
C          C       0.15500   0.43847   0.80733  -0.09152
C          C       0.18058   0.42059   0.75322  -0.15713
C          C       0.07825   0.45105   0.84146  -0.03870
C          C       0.93547   0.74693   0.92047  -0.15796
C          C       0.95068   0.60044   0.96973   0.58440
C          C       0.05078   0.46893   0.89972   0.58330
C          C       0.29412   0.55297   0.17894  -0.08686
C          C       0.47794   0.31900   0.05037  -0.08511
C          C       0.27725   0.58397   0.26776   0.09051
C          C       0.24834   0.57006   0.23311  -0.14507
C          C       0.48646   0.26491   0.06800  -0.14469
C          C       0.54893   0.23129   0.08336   0.09001
C          C       0.59449   0.30802   0.06254  -0.09027
C          C       0.53160   0.34119   0.04793  -0.04105
C          C       0.18443   0.57066   0.35820  -0.12214
C          C       0.55444   0.17414   0.10235  -0.06277
C          C       0.54602   0.14072   0.07037  -0.12064
C          C       0.22559   0.60290   0.32484  -0.06338
C          C       0.40043   0.56149   0.19255  -0.09022
C          C       0.35412   0.57930   0.24660  -0.15473
C          C       0.37052   0.54875   0.15815  -0.03959
C          C       0.60306   0.25371   0.08003  -0.15708
C          C       0.52095   0.39961   0.03039   0.58405
C          C       0.41912   0.53096   0.09999   0.58325
C          C       0.97284   0.17969   0.55343  -0.08722
C          C       0.15305   0.05010   0.31915  -0.08438
C          C       0.87014   0.26829   0.58435   0.09216
C          C       0.94732   0.23391   0.57059  -0.14553
C          C       0.18133   0.06760   0.26506  -0.14675
C          C       0.13756   0.08293   0.23102   0.09307
C          C       0.03596   0.06216   0.30737  -0.08970
C          C       0.07974   0.04769   0.34105  -0.04136
C          C       0.88556   0.35912   0.57126  -0.12251
C          C       0.17029   0.10204   0.17391  -0.06481
C          C       0.24382   0.07021   0.14059  -0.12230
C          C       0.84588   0.32545   0.60335  -0.06227
C          C       0.84499   0.19267   0.56153  -0.09121
C          C       0.81941   0.24678   0.57941  -0.15700
C          C       0.92175   0.15854   0.54895  -0.03883
C          C       0.06452   0.07953   0.25307  -0.15800
C          C       0.04931   0.03027   0.39956   0.58438
C          C       0.94921   0.10028   0.53107   0.58351
C          C       0.70587   0.82106   0.44703  -0.08676
C          C       0.52206   0.94964   0.68100  -0.08529
C          C       0.72274   0.73224   0.41602   0.09057
C          C       0.75165   0.76689   0.42994  -0.14532
C          C       0.51353   0.93200   0.73509  -0.14484
C          C       0.45106   0.91664   0.76870   0.09012
C          C       0.40550   0.93746   0.69198  -0.09004
C          C       0.46840   0.95207   0.65881  -0.04104
C          C       0.81557   0.64180   0.42934  -0.12218
C          C       0.44555   0.89765   0.82586  -0.06265
C          C       0.45398   0.92963   0.85927  -0.12051
C          C       0.77441   0.67516   0.39710  -0.06329
C          C       0.59956   0.80745   0.43851  -0.08985
C          C       0.64588   0.75340   0.42070  -0.15471
C          C       0.62947   0.84184   0.45125  -0.04010
C          C       0.39693   0.91997   0.74629  -0.15709
C          C       0.47904   0.96961   0.60038   0.58432
C          C       0.58087   0.90001   0.46904   0.58374
C          C       0.87023   0.58938   0.41150  -0.06395
C          C       0.78790   0.65565   0.34479   0.22261
C          C       0.91398   0.55511   0.44611   0.58468
C          C       0.87023   0.41150   0.58938  -0.06396
C          C       0.78790   0.34480   0.65565   0.22268
C          C       0.91398   0.44611   0.55511   0.58458
C          C       0.12976   0.58850   0.41062  -0.06381
C          C       0.21209   0.65521   0.34434   0.22278
C          C       0.08601   0.55389   0.44489   0.58451
C          C       0.12976   0.41062   0.58850  -0.06378
C          C       0.21209   0.34435   0.65520   0.22263
C          C       0.08601   0.44489   0.55389   0.58459
C          C       0.28099   0.08832   0.08831  -0.06684
C          C       0.13164   0.15432   0.15431   0.22276
C          C       0.35977   0.05423   0.05421   0.58526
C          C       0.45715   0.91154   0.91155  -0.06391
C          C       0.43953   0.84534   0.84534   0.22230
C          C       0.46860   0.94545   0.94548   0.58634
C          C       0.71900   0.91169   0.91168  -0.06697
C          C       0.86835   0.84569   0.84568   0.22296
C          C       0.64022   0.94579   0.94577   0.58494
C          C       0.54285   0.08845   0.08846  -0.06340
C          C       0.56047   0.15466   0.15466   0.22270
C          C       0.53139   0.05451   0.05455   0.58605
N          N       0.74698   0.68778   0.31255  -0.60637
N          N       0.74698   0.31255   0.68778  -0.60630
N          N       0.25301   0.68745   0.31222  -0.60671
N          N       0.25301   0.31222   0.68745  -0.60669
N          N       0.05861   0.18637   0.18637  -0.61303
N          N       0.43062   0.81313   0.81312  -0.60521
N          N       0.94138   0.81363   0.81363  -0.61359
N          N       0.56937   0.18687   0.18687  -0.60603
O          O       0.90303   0.52028   0.08539  -0.54037
O          O       0.39129   0.07425   0.00755  -0.54991
O          O       0.96421   0.50796   0.42658  -0.54911
O          O       0.98050   0.41879   0.03181  -0.54223
O          O       0.09471   0.42638   0.01518  -0.55031
O          O       0.01712   0.52787   0.06949  -0.55064
O          O       0.50933   0.47979   0.91439  -0.53929
O          O       0.47390   0.92520   0.99206  -0.54993
O          O       0.89932   0.49256   0.57550  -0.54948
O          O       0.43129   0.58095   0.96764  -0.54083
O          O       0.53573   0.57385   0.98517  -0.55202
O          O       0.61438   0.47222   0.93130  -0.55167
O          O       0.09696   0.91461   0.47972  -0.54118
O          O       0.60871   0.99245   0.92574  -0.54950
O          O       0.03578   0.57341   0.49204  -0.54917
O          O       0.01949   0.96819   0.58121  -0.54285
O          O       0.90528   0.98482   0.57362  -0.54947
O          O       0.98287   0.93051   0.47212  -0.54993
O          O       0.49066   0.08561   0.52022  -0.54006
O          O       0.52609   0.00794   0.07481  -0.54973
O          O       0.10068   0.42450   0.50744  -0.54933
O          O       0.56870   0.03236   0.41905  -0.54135
O          O       0.46427   0.01483   0.42615  -0.55088
O          O       0.38561   0.06870   0.52778  -0.55085
O          O       0.09696   0.47972   0.91461  -0.54103
O          O       0.60871   0.92581   0.99246  -0.55004
O          O       0.03578   0.49205   0.57341  -0.54914
O          O       0.01949   0.58121   0.96818  -0.54286
O          O       0.90528   0.57362   0.98482  -0.54965
O          O       0.98287   0.47213   0.93051  -0.54989
O          O       0.49066   0.52022   0.08561  -0.54006
O          O       0.52616   0.07472   0.00795  -0.55026
O          O       0.10068   0.50744   0.42450  -0.54925
O          O       0.56870   0.41905   0.03236  -0.54137
O          O       0.46427   0.42615   0.01483  -0.55102
O          O       0.38561   0.52778   0.06870  -0.55061
O          O       0.90303   0.08539   0.52028  -0.54043
O          O       0.39128   0.00754   0.07420  -0.54990
O          O       0.96421   0.42659   0.50795  -0.54917
O          O       0.98050   0.03182   0.41879  -0.54225
O          O       0.09471   0.01518   0.42638  -0.55017
O          O       0.01712   0.06949   0.52787  -0.55074
O          O       0.50933   0.91439   0.47978  -0.53943
O          O       0.47383   0.99205   0.92527  -0.55010
O          O       0.89932   0.57550   0.49256  -0.54932
O          O       0.43129   0.96764   0.58095  -0.54085
O          O       0.53573   0.98517   0.57385  -0.55179
O          O       0.61438   0.93130   0.47222  -0.55167

