data_crystal

_audit_creation_method 'AiiDA-DDEC plugin'

_cell_length_a        14.47341
_cell_length_b        16.26987
_cell_length_c        16.63280

_cell_angle_alpha     116.38620
_cell_angle_beta     90.10198
_cell_angle_gamma     116.51305

_symmetry_space_group_name_Hall 'P 1'
_symmetry_space_group_name_H-M  'P 1'

loop_
_symmetry_equiv_pos_as_xyz
 'x,y,z'

loop_
_atom_site_label
_atom_site_type_symbol
_atom_site_fract_x
_atom_site_fract_y
_atom_site_fract_z
_atom_site_charge
Zn         Zn      0.44457   0.27915   0.31676   0.74711
Zn         Zn      0.16449   0.71851   0.18273   0.74803
Zn         Zn      0.55542   0.72084   0.68324   0.74715
Zn         Zn      0.83550   0.28149   0.81726   0.74803
Zn         Zn      0.22252   0.00013   0.75008   0.76533
Zn         Zn      0.77748  -0.00013   0.24991   0.76529
H          H       0.49215   0.29837   0.80124   0.11915
H          H       0.61524   0.45009   0.77772   0.11173
H          H       0.36071   0.10008   0.50794   0.11886
H          H       0.77477   0.39565   0.61908   0.13017
H          H       0.95834   0.51942   0.72493   0.11119
H          H       0.00931   0.70575   0.83953   0.10532
H          H       0.87652   0.76576   0.85022   0.11325
H          H       0.66916   0.33941   0.35180   0.09772
H          H       0.84535   0.50348   0.44404   0.13415
H          H       0.67800   0.68064   0.51563   0.13831
H          H       0.51114   0.51109   0.41747   0.09196
H          H       0.96976   0.67740   0.44025   0.12732
H          H       0.13785   0.84693   0.54531   0.11167
H          H       0.99241   0.91968   0.76046   0.09145
H          H       0.81546   0.75852   0.66296   0.13654
H          H       0.48338   0.09897   0.26631   0.10035
H          H       0.50444   0.96889   0.12672   0.13740
H          H       0.47819   0.12979   0.98594   0.13508
H          H       0.44806   0.24621   0.12926   0.10268
H          H       0.19480   0.70327   0.69931   0.11998
H          H       0.16724   0.55133   0.72205   0.11123
H          H       0.26001   0.89918   0.99262   0.11940
H          H       0.38116   0.60600   0.88131   0.12956
H          H       0.44061   0.48259   0.77568   0.11061
H          H       0.30458   0.29616   0.66096   0.10503
H          H       0.11157   0.23509   0.65047   0.11319
H          H       0.32869   0.66002   0.14772   0.09718
H          H       0.34225   0.49726   0.05635   0.13473
H          H       0.99709   0.31648   0.98374   0.13902
H          H      -0.00187   0.48471   0.08089   0.09238
H          H       0.29276   0.32192   0.05991   0.12676
H          H       0.29102   0.15278   0.95494   0.11147
H          H       0.07292   0.08006   0.73895   0.09132
H          H       0.05724   0.24076   0.83619   0.13601
H          H       0.38328   0.89887   0.23286   0.09981
H          H       0.53495   0.03022   0.37278   0.13769
H          H       0.34828   0.86979   0.51401   0.13453
H          H       0.20130   0.75192   0.37020   0.10297
H          H       0.50785   0.70163   0.19876   0.11918
H          H       0.38475   0.54991   0.22228   0.11191
H          H       0.63929   0.89991   0.49206   0.11876
H          H       0.22523   0.60434   0.38092   0.13005
H          H       0.04165   0.48058   0.27506   0.11114
H          H       0.99069   0.29424   0.16047   0.10541
H          H       0.12348   0.23423   0.14977   0.11335
H          H       0.33084   0.66059   0.64820   0.09756
H          H       0.15464   0.49651   0.55596   0.13421
H          H       0.32200   0.31936   0.48437   0.13839
H          H       0.48886   0.48890   0.58253   0.09188
H          H       0.03024   0.32260   0.55975   0.12725
H          H       0.86215   0.15306   0.45469   0.11180
H          H       0.00759   0.08031   0.23954   0.09151
H          H       0.18453   0.24147   0.33704   0.13642
H          H       0.51662   0.90103   0.73369   0.10040
H          H       0.49556   0.03110   0.87328   0.13738
H          H       0.52181   0.87020   0.01406   0.13513
H          H       0.55193   0.75378   0.87073   0.10276
H          H       0.80519   0.29673   0.30069   0.11982
H          H       0.83275   0.44867   0.27795   0.11114
H          H       0.73999   0.10082   0.00737   0.11945
H          H       0.61884   0.39400   0.11869   0.12979
H          H       0.55938   0.51740   0.22432   0.11066
H          H       0.69542   0.70384   0.33904   0.10493
H          H       0.88843   0.76490   0.34953   0.11299
H          H       0.67131   0.33997   0.85228   0.09736
H          H       0.65775   0.50274   0.94364   0.13474
H          H       0.00290   0.68352   0.01626   0.13889
H          H       0.00187   0.51529   0.91910   0.09226
H          H       0.70723   0.67807   0.94009   0.12685
H          H       0.70898   0.84722   0.04506   0.11149
H          H       0.92708   0.91993   0.26105   0.09127
H          H       0.94275   0.75924   0.16380   0.13597
H          H       0.61672   0.10112   0.76714   0.09981
H          H       0.46505   0.96978   0.62722   0.13783
H          H       0.65171   0.13021   0.48598   0.13462
H          H       0.79870   0.24807   0.62979   0.10290
C          C       0.34540   0.09946   0.66793   0.55067
C          C       0.42057   0.18980   0.65565  -0.05574
C          C       0.49253   0.28840   0.73213  -0.08442
C          C       0.56080   0.37228   0.71944  -0.21749
C          C       0.55872   0.35743   0.62984   0.23005
C          C       0.48792   0.25917   0.55226  -0.12659
C          C       0.41781   0.17673   0.56644  -0.11580
C          C       0.49045   0.24176   0.45576   0.59318
C          C       0.72548   0.51174   0.67623   0.21127
C          C       0.79918   0.47718   0.67001  -0.19566
C          C       0.90153   0.54701   0.72891  -0.07336
C          C       0.92956   0.65122   0.79351  -0.09542
C          C       0.85522   0.68502   0.79941  -0.11308
C          C       0.75169   0.61528   0.74093  -0.13107
C          C       0.66987   0.65004   0.74948   0.58927
C          C       0.67595   0.41707   0.38750   0.09783
C          C       0.77333   0.50860   0.43900  -0.16288
C          C       0.77674   0.60616   0.48678   0.11448
C          C       0.68091   0.60751   0.47994  -0.15721
C          C       0.58688   0.51297   0.42561   0.09941
C          C       0.87860   0.70464   0.54402   0.10750
C          C       0.97073   0.72879   0.51067  -0.17611
C          C       0.06477   0.82236   0.56824   0.09891
C          C       0.98315   0.86527   0.68850   0.08096
C          C       0.88521   0.77572   0.63452  -0.16679
C          C       0.47928   0.09959   0.20124   0.08573
C          C       0.49324   0.02909   0.12322  -0.15421
C          C       0.49278   0.03687   0.04232   0.10888
C          C       0.47799   0.11768   0.04511  -0.13804
C          C       0.46238   0.18414   0.12482   0.08575
C          C       0.24457   0.90056   0.83308   0.55029
C          C       0.23074   0.81044   0.84492  -0.05499
C          C       0.20480   0.71248   0.76820  -0.08612
C          C       0.19005   0.62867   0.78057  -0.21605
C          C       0.20280   0.64312   0.87008   0.22884
C          C       0.22956   0.74078   0.94784  -0.12635
C          C       0.24121   0.82310   0.93398  -0.11746
C          C       0.24967   0.75787   0.04423   0.59313
C          C       0.21529   0.48931   0.82396   0.21028
C          C       0.32378   0.52433   0.83040  -0.19439
C          C       0.35605   0.45471   0.77160  -0.07323
C          C       0.27947   0.35039   0.70704  -0.09646
C          C       0.17109   0.31606   0.70119  -0.11202
C          C       0.13743   0.38558   0.75947  -0.13090
C          C       0.02065   0.35096   0.75163   0.58857
C          C       0.25797   0.58191   0.11190   0.09629
C          C       0.26464   0.49108   0.06083  -0.16196
C          C       0.17070   0.39284   0.01288   0.11462
C          C       0.07296   0.39023   0.01936  -0.15893
C          C       0.07259   0.48410   0.07319   0.10057
C          C       0.17444   0.29481   0.95565   0.10738
C          C       0.24239   0.27076   0.98927  -0.17572
C          C       0.24277   0.17743   0.93174   0.09965
C          C       0.11826   0.13451   0.81100   0.08089
C          C       0.10990   0.22379   0.86489  -0.16672
C          C       0.37887   0.89881   0.29818   0.08607
C          C       0.46355   0.97003   0.37644  -0.15384
C          C       0.45570   0.96277   0.45757   0.10815
C          C       0.36005   0.88163   0.45474  -0.13664
C          C       0.27772   0.81437   0.37479   0.08511
C          C       0.65460   0.90053   0.33206   0.55061
C          C       0.57942   0.81019   0.34434  -0.05556
C          C       0.50746   0.71160   0.26786  -0.08440
C          C       0.43920   0.62771   0.28055  -0.21754
C          C       0.44127   0.64256   0.37015   0.23011
C          C       0.51208   0.74083   0.44773  -0.12654
C          C       0.58219   0.82326   0.43356  -0.11606
C          C       0.50955   0.75823   0.54424   0.59322
C          C       0.27452   0.48826   0.32376   0.21142
C          C       0.20082   0.52282   0.32999  -0.19582
C          C       0.09847   0.45299   0.27109  -0.07322
C          C       0.07043   0.34878   0.20648  -0.09540
C          C       0.14477   0.31498   0.20059  -0.11293
C          C       0.24830   0.38472   0.25906  -0.13125
C          C       0.33012   0.34996   0.25051   0.58940
C          C       0.32404   0.58293   0.61249   0.09797
C          C       0.22666   0.49140   0.56100  -0.16293
C          C       0.22326   0.39384   0.51322   0.11443
C          C       0.31909   0.39248   0.52005  -0.15712
C          C       0.41312   0.48703   0.57439   0.09943
C          C       0.12140   0.29536   0.45598   0.10758
C          C       0.02927   0.27120   0.48933  -0.17624
C          C       0.93522   0.17763   0.43176   0.09877
C          C       0.01684   0.13473   0.31150   0.08108
C          C       0.11479   0.22427   0.36548  -0.16674
C          C       0.52072   0.90041   0.79876   0.08568
C          C       0.50676   0.97090   0.87678  -0.15429
C          C       0.50722   0.96313   0.95767   0.10880
C          C       0.52201   0.88231   0.95489  -0.13809
C          C       0.53761   0.81586   0.87517   0.08577
C          C       0.75542   0.09943   0.16692   0.55005
C          C       0.76926   0.18955   0.15507  -0.05491
C          C       0.79520   0.28751   0.23180  -0.08596
C          C       0.80995   0.37132   0.21943  -0.21617
C          C       0.79719   0.35687   0.12992   0.22881
C          C       0.77043   0.25922   0.05216  -0.12640
C          C       0.75878   0.17690   0.06601  -0.11731
C          C       0.75032   0.24213   0.95577   0.59303
C          C       0.78470   0.51068   0.17604   0.21042
C          C       0.67621   0.47566   0.16960  -0.19452
C          C       0.64394   0.54529   0.22840  -0.07312
C          C       0.72053   0.64961   0.29295  -0.09639
C          C       0.82891   0.68394   0.29880  -0.11203
C          C       0.86257   0.61442   0.24052  -0.13101
C          C       0.97934   0.64904   0.24837   0.58853
C          C       0.74202   0.41808   0.88810   0.09625
C          C       0.73535   0.50891   0.93917  -0.16184
C          C       0.82929   0.60715   0.98712   0.11460
C          C       0.92704   0.60977   0.98064  -0.15902
C          C       0.92741   0.51589   0.92681   0.10059
C          C       0.82556   0.70519   0.04435   0.10741
C          C       0.75761   0.72923   0.01073  -0.17568
C          C       0.75722   0.82256   0.06825   0.09965
C          C       0.88174   0.86548   0.18900   0.08071
C          C       0.89010   0.77621   0.13511  -0.16664
C          C       0.62112   0.10119   0.70182   0.08608
C          C       0.53645   0.02996   0.62356  -0.15384
C          C       0.54430   0.03723   0.54243   0.10829
C          C       0.63994   0.11837   0.54526  -0.13681
C          C       0.72227   0.18563   0.62521   0.08508
N          N       0.58421   0.41910   0.38038  -0.23362
N          N       0.46291   0.17559   0.20210  -0.22702
N          N       0.07164   0.88949   0.65624  -0.23124
N          N       0.16360   0.57867   0.11845  -0.23291
N          N       0.28660   0.82248   0.29733  -0.22622
N          N       0.18259   0.11048   0.84351  -0.23200
N          N       0.41579   0.58090   0.61962  -0.23386
N          N       0.53709   0.82441   0.79790  -0.22696
N          N       0.92836   0.11051   0.34376  -0.23103
N          N       0.83639   0.42132   0.88155  -0.23275
N          N       0.71339   0.17752   0.70266  -0.22632
N          N       0.81741   0.88952   0.15649  -0.23208
O          O       0.27698   0.01348   0.59925  -0.57277
O          O       0.35442   0.11650   0.75252  -0.55819
O          O       0.67087   0.69340   0.69971  -0.54419
O          O       0.60927   0.63679   0.80126  -0.53511
O          O       0.62330   0.44083   0.61511  -0.22829
O          O       0.41410   0.24323   0.41583  -0.55258
O          O       0.56144   0.22697   0.42058  -0.54971
O          O       0.26111   0.98572   0.90180  -0.57203
O          O       0.23646   0.88392   0.74862  -0.55855
O          O       0.97793   0.30585   0.80010  -0.54399
O          O       0.97327   0.36634   0.70171  -0.53711
O          O       0.18421   0.55991   0.88487  -0.22690
O          O       0.17158   0.75519   0.08381  -0.55457
O          O       0.33616   0.77356   0.07957  -0.54874
O          O       0.72302   0.98652   0.40075  -0.57302
O          O       0.64558   0.88349   0.24747  -0.55798
O          O       0.32913   0.30659   0.30029  -0.54411
O          O       0.39072   0.36321   0.19873  -0.53521
O          O       0.37670   0.55916   0.38489  -0.22837
O          O       0.58589   0.75676   0.58417  -0.55269
O          O       0.43856   0.77302   0.57942  -0.54972
O          O       0.73888   0.01428   0.09820  -0.57179
O          O       0.76353   0.11608   0.25138  -0.55855
O          O       0.02207   0.69415   0.19990  -0.54405
O          O       0.02672   0.63365   0.29828  -0.53711
O          O       0.81579   0.44008   0.11513  -0.22695
O          O       0.82841   0.24480   0.91619  -0.55456
O          O       0.66384   0.22644   0.92043  -0.54858

