data_crystal

_audit_creation_method 'AiiDA-DDEC plugin'

_cell_length_a        11.36182
_cell_length_b        18.65818
_cell_length_c        23.79679

_cell_angle_alpha     90.02646
_cell_angle_beta     90.00000
_cell_angle_gamma     90.00000

_symmetry_space_group_name_Hall 'P 1'
_symmetry_space_group_name_H-M  'P 1'

loop_
_symmetry_equiv_pos_as_xyz
 'x,y,z'

loop_
_atom_site_label
_atom_site_type_symbol
_atom_site_fract_x
_atom_site_fract_y
_atom_site_fract_z
_atom_site_charge
Ni         Ni      0.53222   0.29978   0.52116   0.67934
Ni         Ni      0.53222   0.70021   0.47884   0.67930
Ni         Ni      0.46784   0.20099   0.02088   0.67943
Ni         Ni      0.46784   0.79901   0.97912   0.67943
Ni         Ni      0.53324   0.50000   0.50000   0.90566
Ni         Ni      0.46667   0.00000   0.00000   0.90489
H          H       0.57924   0.48656   0.64318   0.08262
H          H       0.35407   0.41021   0.68319   0.14221
H          H       0.40238   0.49649   0.70531   0.13712
H          H       0.36114   0.48336   0.63436   0.13350
H          H       0.92375   0.39904   0.75138   0.11730
H          H       0.87707   0.21363   0.85790   0.11190
H          H       0.59938   0.28143   0.74772   0.11592
H          H       0.23179   0.47326   0.78215   0.13361
H          H       0.19916   0.47074   0.85517   0.12960
H          H       0.34753   0.45909   0.83094   0.11947
H          H       0.24858   0.34086   0.85922   0.07208
H          H       0.29793   0.20252   0.84523   0.13387
H          H       0.32398   0.15902   0.78029   0.14971
H          H       0.27198   0.10836   0.83873   0.14090
H          H       0.48529   0.08524   0.82582   0.07687
H          H       0.11396   0.24348   0.44443   0.12985
H          H       0.33457   0.25085   0.44582   0.10176
H          H       0.33355   0.33558   0.60692   0.10387
H          H       0.11669   0.34175   0.60911   0.13133
H          H       0.94275   0.27531   0.61424   0.12939
H          H       0.72420   0.28257   0.60858   0.10113
H          H       0.73445   0.32469   0.43803   0.08932
H          H       0.95221   0.31869   0.43580   0.13019
H          H       0.49474   0.17485   0.59649   0.11503
H          H       0.49698   0.04126   0.59123   0.13150
H          H       0.59522   0.06228   0.41615   0.12357
H          H       0.58298   0.19421   0.42826   0.10965
H          H       0.73051   0.47450   0.58530   0.09631
H          H       0.94572   0.47317   0.58861   0.13331
H          H       0.11866   0.56803   0.57377   0.12887
H          H       0.33409   0.56734   0.56984   0.10147
H          H       0.53811   0.37808   0.73229   0.27588
H          H       0.10803   0.34573   0.75758   0.26858
H          H       0.49991   0.24088   0.81053   0.27934
H          H       0.57924   0.51344   0.35682   0.08264
H          H       0.35407   0.58979   0.31681   0.14211
H          H       0.40238   0.50351   0.29469   0.13719
H          H       0.36114   0.51664   0.36564   0.13350
H          H       0.92375   0.60096   0.24862   0.11737
H          H       0.87707   0.78637   0.14210   0.11184
H          H       0.59938   0.71857   0.25228   0.11593
H          H       0.23179   0.52673   0.21785   0.13365
H          H       0.19916   0.52926   0.14483   0.12959
H          H       0.34753   0.54090   0.16906   0.11948
H          H       0.24858   0.65914   0.14078   0.07200
H          H       0.29793   0.79748   0.15477   0.13393
H          H       0.32398   0.84097   0.21971   0.14978
H          H       0.27198   0.89164   0.16127   0.14081
H          H       0.48529   0.91476   0.17418   0.07674
H          H       0.11396   0.75652   0.55557   0.12979
H          H       0.33457   0.74915   0.55418   0.10175
H          H       0.33355   0.66442   0.39308   0.10388
H          H       0.11669   0.65825   0.39089   0.13133
H          H       0.94275   0.72468   0.38576   0.12936
H          H       0.72420   0.71743   0.39142   0.10104
H          H       0.73445   0.67531   0.56197   0.08935
H          H       0.95221   0.68131   0.56420   0.13023
H          H       0.49474   0.82515   0.40351   0.11506
H          H       0.49698   0.95873   0.40877   0.13139
H          H       0.59522   0.93772   0.58385   0.12356
H          H       0.58298   0.80579   0.57174   0.10969
H          H       0.73051   0.52550   0.41470   0.09621
H          H       0.94572   0.52683   0.41139   0.13325
H          H       0.11866   0.43197   0.42623   0.12890
H          H       0.33409   0.43266   0.43016   0.10148
H          H       0.53811   0.62191   0.26771   0.27574
H          H       0.10803   0.65427   0.24243   0.26853
H          H       0.49991   0.75912   0.18947   0.27941
H          H       0.42258   0.01397   0.14233   0.08347
H          H       0.64655   0.09097   0.18328   0.14292
H          H       0.59884   0.00432   0.20483   0.13746
H          H       0.64082   0.01812   0.13412   0.13445
H          H       0.07692   0.10019   0.25051   0.11681
H          H       0.12212   0.28574   0.35706   0.11099
H          H       0.40102   0.21803   0.24750   0.11733
H          H       0.76554   0.02725   0.28172   0.13350
H          H       0.79836   0.03043   0.35474   0.12874
H          H       0.65032   0.04295   0.33050   0.11935
H          H       0.75248   0.16062   0.35821   0.07328
H          H       0.70326   0.29763   0.34504   0.13298
H          H       0.67664   0.34134   0.28027   0.14982
H          H       0.72706   0.39203   0.33906   0.13861
H          H       0.51385   0.41373   0.32586   0.07760
H          H       0.88688   0.25740   0.94478   0.12963
H          H       0.66610   0.24999   0.94587   0.10028
H          H       0.66640   0.16460   0.10669   0.10317
H          H       0.88333   0.15802   0.10898   0.13092
H          H       0.05747   0.22477   0.11441   0.12970
H          H       0.27608   0.21796   0.10854   0.10220
H          H       0.26551   0.17583   0.93797   0.08890
H          H       0.04756   0.18125   0.93597   0.13026
H          H       0.50562   0.32505   0.09604   0.11468
H          H       0.50282   0.45866   0.09112   0.13210
H          H       0.40421   0.43790   0.91601   0.12434
H          H       0.41709   0.30595   0.92782   0.10952
H          H       0.26961   0.02548   0.08533   0.09602
H          H       0.05451   0.02671   0.08865   0.13293
H          H       0.88127   0.93200   0.07372   0.12836
H          H       0.66591   0.93275   0.06984   0.10141
H          H       0.46185   0.12187   0.23216   0.27603
H          H       0.89107   0.15435   0.25611   0.26797
H          H       0.50061   0.25827   0.30990   0.27973
H          H       0.42258   0.98602   0.85767   0.08343
H          H       0.64655   0.90902   0.81672   0.14298
H          H       0.59884   0.99568   0.79517   0.13740
H          H       0.64082   0.98188   0.86588   0.13445
H          H       0.07692   0.89981   0.74949   0.11669
H          H       0.12212   0.71426   0.64294   0.11108
H          H       0.40102   0.78197   0.75250   0.11734
H          H       0.76554   0.97274   0.71828   0.13351
H          H       0.79836   0.96957   0.64526   0.12873
H          H       0.65032   0.95705   0.66950   0.11933
H          H       0.75248   0.83937   0.64179   0.07326
H          H       0.70326   0.70237   0.65496   0.13291
H          H       0.67664   0.65865   0.71973   0.14989
H          H       0.72706   0.60797   0.66094   0.13867
H          H       0.51385   0.58626   0.67414   0.07784
H          H       0.88688   0.74260   0.05522   0.12976
H          H       0.66610   0.75000   0.05413   0.10026
H          H       0.66640   0.83540   0.89331   0.10314
H          H       0.88333   0.84197   0.89102   0.13090
H          H       0.05747   0.77523   0.88559   0.12968
H          H       0.27608   0.78204   0.89146   0.10220
H          H       0.26551   0.82417   0.06203   0.08892
H          H       0.04756   0.81874   0.06403   0.13024
H          H       0.50562   0.67495   0.90396   0.11459
H          H       0.50282   0.54134   0.90888   0.13209
H          H       0.40421   0.56210   0.08399   0.12434
H          H       0.41709   0.69405   0.07218   0.10954
H          H       0.26961   0.97452   0.91467   0.09608
H          H       0.05451   0.97329   0.91135   0.13293
H          H       0.88127   0.06800   0.92628   0.12831
H          H       0.66591   0.06725   0.93016   0.10139
H          H       0.46185   0.87813   0.76784   0.27603
H          H       0.89107   0.84564   0.74389   0.26799
H          H       0.50061   0.74173   0.69010   0.27970
C          C       0.53369   0.38711   0.60599   0.56824
C          C       0.53117   0.43842   0.65601   0.06846
C          C       0.40384   0.45797   0.67045  -0.41988
C          C       0.70849   0.39676   0.70313   0.46273
C          C       0.75629   0.34592   0.74596  -0.02104
C          C       0.87124   0.35415   0.76635  -0.12828
C          C       0.91556   0.30685   0.80699  -0.02712
C          C       0.84395   0.25094   0.82660  -0.11335
C          C       0.72948   0.24216   0.80615  -0.02087
C          C       0.68700   0.28907   0.76503  -0.12236
C          C       0.03416   0.31815   0.83357   0.45950
C          C       0.25461   0.44735   0.82214  -0.41745
C          C       0.23562   0.36580   0.81794   0.05758
C          C       0.32408   0.33349   0.77497   0.55132
C          C       0.65367   0.18390   0.82964   0.45668
C          C       0.32988   0.15261   0.82606  -0.41403
C          C       0.45707   0.13671   0.84343   0.07328
C          C       0.46597   0.12896   0.90796   0.57546
C          C       0.15996   0.26699   0.48018  -0.17092
C          C       0.28226   0.26930   0.48127   0.09443
C          C       0.28266   0.31862   0.57070   0.10001
C          C       0.16050   0.32006   0.57219  -0.17337
C          C       0.09663   0.29447   0.52601   0.10088
C          C       0.96696   0.29723   0.52527   0.09856
C          C       0.90055   0.28694   0.57426  -0.16882
C          C       0.77855   0.29026   0.57152   0.08995
C          C       0.78398   0.31424   0.47610   0.09699
C          C       0.90598   0.31119   0.47530  -0.15082
C          C       0.51656   0.14711   0.55756   0.08312
C          C       0.51901   0.07275   0.55424  -0.17036
C          C       0.54630   0.03942   0.50284   0.09648
C          C       0.57115   0.08414   0.45692  -0.16253
C          C       0.56663   0.15811   0.46333   0.09982
C          C       0.77992   0.48627   0.54735   0.09876
C          C       0.90246   0.48596   0.54907  -0.17853
C          C       0.16192   0.53731   0.54084  -0.17674
C          C       0.28447   0.53699   0.53893   0.09352
C          C       0.53369   0.61289   0.39401   0.56830
C          C       0.53117   0.56158   0.34399   0.06845
C          C       0.40384   0.54203   0.32955  -0.41982
C          C       0.70849   0.60324   0.29687   0.46249
C          C       0.75629   0.65408   0.25404  -0.02099
C          C       0.87124   0.64584   0.23365  -0.12821
C          C       0.91556   0.69314   0.19301  -0.02727
C          C       0.84395   0.74906   0.17340  -0.11331
C          C       0.72948   0.75783   0.19385  -0.02089
C          C       0.68700   0.71092   0.23497  -0.12233
C          C       0.03416   0.68184   0.16643   0.45965
C          C       0.25461   0.55265   0.17787  -0.41735
C          C       0.23562   0.63420   0.18206   0.05759
C          C       0.32408   0.66651   0.22503   0.55132
C          C       0.65367   0.81610   0.17037   0.45679
C          C       0.32988   0.84739   0.17394  -0.41402
C          C       0.45707   0.86328   0.15657   0.07327
C          C       0.46597   0.87104   0.09204   0.57550
C          C       0.15996   0.73301   0.51982  -0.17084
C          C       0.28226   0.73070   0.51873   0.09438
C          C       0.28266   0.68138   0.42931   0.10007
C          C       0.16050   0.67994   0.42781  -0.17336
C          C       0.09663   0.70553   0.47399   0.10086
C          C       0.96696   0.70277   0.47473   0.09856
C          C       0.90055   0.71305   0.42575  -0.16888
C          C       0.77855   0.70973   0.42848   0.09000
C          C       0.78398   0.68576   0.52390   0.09697
C          C       0.90598   0.68881   0.52470  -0.15078
C          C       0.51656   0.85289   0.44244   0.08306
C          C       0.51901   0.92725   0.44576  -0.17033
C          C       0.54630   0.96057   0.49716   0.09644
C          C       0.57115   0.91586   0.54308  -0.16260
C          C       0.56663   0.84188   0.53667   0.09989
C          C       0.77992   0.51373   0.45265   0.09878
C          C       0.90246   0.51404   0.45093  -0.17845
C          C       0.16192   0.46269   0.45916  -0.17674
C          C       0.28447   0.46301   0.46107   0.09357
C          C       0.46677   0.11390   0.10580   0.56534
C          C       0.46999   0.06221   0.15555   0.06692
C          C       0.59740   0.04311   0.17019  -0.42280
C          C       0.29204   0.10299   0.20260   0.45960
C          C       0.24414   0.15359   0.24544  -0.02226
C          C       0.12908   0.14521   0.26554  -0.12630
C          C       0.08435   0.19282   0.30581  -0.03168
C          C       0.15590   0.24852   0.32584  -0.10995
C          C       0.27072   0.25708   0.30589  -0.02142
C          C       0.31337   0.21033   0.26471  -0.12352
C          C       0.96545   0.18230   0.33192   0.46497
C          C       0.74342   0.05382   0.32156  -0.41673
C          C       0.76412   0.13513   0.31702   0.05717
C          C       0.67578   0.16798   0.27447   0.55111
C          C       0.34662   0.31506   0.32961   0.45626
C          C       0.67026   0.34738   0.32606  -0.41125
C          C       0.54276   0.36241   0.34342   0.07255
C          C       0.53393   0.37028   0.40794   0.57756
C          C       0.84057   0.23363   0.98032  -0.17285
C          C       0.71829   0.23135   0.98129   0.09650
C          C       0.71748   0.18161   0.07057   0.09908
C          C       0.83961   0.17999   0.07215  -0.17095
C          C       0.90359   0.20579   0.02610   0.10124
C          C       0.03320   0.20295   0.02540   0.09704
C          C       0.09963   0.21327   0.07437  -0.16758
C          C       0.22161   0.21016   0.07153   0.08749
C          C       0.21599   0.18615   0.97607   0.09528
C          C       0.09402   0.18896   0.97539  -0.14946
C          C       0.48361   0.35289   0.05721   0.08460
C          C       0.48082   0.42723   0.05407  -0.17178
C          C       0.45331   0.46058   0.00274   0.09789
C          C       0.42850   0.41598   0.95671  -0.16377
C          C       0.43338   0.34201   0.96295   0.09993
C          C       0.22029   0.01368   0.04736   0.09916
C          C       0.09773   0.01397   0.04908  -0.17971
C          C       0.83804   0.96271   0.04080  -0.17619
C          C       0.71546   0.96304   0.03890   0.09337
C          C       0.46677   0.88610   0.89420   0.56542
C          C       0.46999   0.93779   0.84445   0.06685
C          C       0.59740   0.95689   0.82981  -0.42286
C          C       0.29204   0.89701   0.79740   0.45968
C          C       0.24414   0.84641   0.75456  -0.02234
C          C       0.12908   0.85478   0.73446  -0.12621
C          C       0.08435   0.80718   0.69419  -0.03171
C          C       0.15590   0.75148   0.67416  -0.11003
C          C       0.27072   0.74292   0.69411  -0.02139
C          C       0.31337   0.78967   0.73529  -0.12344
C          C       0.96545   0.81769   0.66808   0.46512
C          C       0.74342   0.94617   0.67844  -0.41686
C          C       0.76412   0.86486   0.68298   0.05723
C          C       0.67578   0.83202   0.72553   0.55098
C          C       0.34662   0.68494   0.67039   0.45630
C          C       0.67026   0.65262   0.67394  -0.41125
C          C       0.54276   0.63758   0.65658   0.07234
C          C       0.53393   0.62972   0.59206   0.57758
C          C       0.84057   0.76637   0.01968  -0.17295
C          C       0.71829   0.76865   0.01871   0.09663
C          C       0.71748   0.81839   0.92943   0.09911
C          C       0.83961   0.82001   0.92786  -0.17108
C          C       0.90359   0.79421   0.97390   0.10135
C          C       0.03320   0.79705   0.97460   0.09704
C          C       0.09963   0.78673   0.92563  -0.16752
C          C       0.22161   0.78983   0.92847   0.08752
C          C       0.21599   0.81385   0.02393   0.09524
C          C       0.09402   0.81104   0.02461  -0.14944
C          C       0.48361   0.64711   0.94279   0.08460
C          C       0.48082   0.57277   0.94593  -0.17169
C          C       0.45331   0.53941   0.99726   0.09776
C          C       0.42850   0.58402   0.04329  -0.16359
C          C       0.43338   0.65799   0.03705   0.09975
C          C       0.22029   0.98631   0.95264   0.09906
C          C       0.09773   0.98603   0.95092  -0.17969
C          C       0.83804   0.03728   0.95920  -0.17620
C          C       0.71546   0.03695   0.96110   0.09337
C          C       0.96686   0.50000   0.50000   0.09048
C          C       0.09734   0.50000   0.50000   0.09510
C          C       0.03325  -0.00000   0.00000   0.09274
C          C       0.90271  -0.00000   0.00000   0.09414
N          N       0.58956   0.40622   0.70414  -0.37565
N          N       0.11553   0.35060   0.80020  -0.37039
N          N       0.53558   0.19203   0.82234  -0.37706
N          N       0.34328   0.29517   0.52554  -0.23284
N          N       0.72048   0.30381   0.52319  -0.22731
N          N       0.53950   0.18936   0.51284  -0.21940
N          N       0.58956   0.59377   0.29586  -0.37543
N          N       0.11553   0.64940   0.19980  -0.37034
N          N       0.53558   0.80796   0.17766  -0.37712
N          N       0.34328   0.70483   0.47446  -0.23288
N          N       0.72048   0.69619   0.47681  -0.22729
N          N       0.53950   0.81064   0.48716  -0.21928
N          N       0.41099   0.09373   0.20378  -0.37354
N          N       0.88422   0.14927   0.29877  -0.37116
N          N       0.46466   0.30693   0.32230  -0.37872
N          N       0.65714   0.20532   0.02544  -0.23278
N          N       0.27953   0.19676   0.02313  -0.22561
N          N       0.46079   0.31075   0.01238  -0.21926
N          N       0.41099   0.90627   0.79622  -0.37359
N          N       0.88422   0.85073   0.70123  -0.37129
N          N       0.46466   0.69307   0.67770  -0.37884
N          N       0.65714   0.79468   0.97456  -0.23287
N          N       0.27952   0.80324   0.97687  -0.22565
N          N       0.46079   0.68924   0.98762  -0.21924
N          N       0.71858   0.50000   0.50000  -0.24651
N          N       0.34614   0.50000   0.50000  -0.24302
N          N       0.28167   0.00000   0.00000  -0.24670
N          N       0.65372   0.00000   0.00000  -0.24342
O          O       0.52912   0.41097   0.55508  -0.57476
O          O       0.53629   0.31986   0.61404  -0.50895
O          O       0.77409   0.42714   0.66845  -0.51524
O          O       0.28517   0.31635   0.72733  -0.59045
O          O       0.43082   0.33076   0.79240  -0.62206
O          O       0.05275   0.30133   0.88351  -0.51712
O          O       0.47575   0.18792   0.93480  -0.54140
O          O       0.45790   0.06611   0.92772  -0.56478
O          O       0.69672   0.13124   0.85463  -0.50692
O          O       0.52912   0.58902   0.44492  -0.57469
O          O       0.53629   0.68014   0.38596  -0.50911
O          O       0.77409   0.57286   0.33155  -0.51505
O          O       0.28517   0.68365   0.27267  -0.59047
O          O       0.43082   0.66924   0.20760  -0.62207
O          O       0.05275   0.69867   0.11649  -0.51725
O          O       0.47575   0.81208   0.06520  -0.54134
O          O       0.45790   0.93389   0.07228  -0.56489
O          O       0.69672   0.86876   0.14537  -0.50707
O          O       0.47094   0.09020   0.05479  -0.57378
O          O       0.46388   0.18113   0.11410  -0.50801
O          O       0.22644   0.07264   0.16788  -0.51257
O          O       0.71481   0.18546   0.22698  -0.58874
O          O       0.56908   0.17090   0.29205  -0.62105
O          O       0.94659   0.20034   0.38156  -0.51920
O          O       0.52426   0.31162   0.43502  -0.54232
O          O       0.54224   0.43306   0.42771  -0.56742
O          O       0.30338   0.36747   0.35488  -0.50851
O          O       0.47094   0.90980   0.94521  -0.57385
O          O       0.46388   0.81886   0.88590  -0.50791
O          O       0.22644   0.92736   0.83212  -0.51263
O          O       0.71481   0.81454   0.77302  -0.58855
O          O       0.56908   0.82910   0.70795  -0.62104
O          O       0.94659   0.79966   0.61844  -0.51922
O          O       0.52426   0.68838   0.56498  -0.54244
O          O       0.54224   0.56693   0.57229  -0.56730
O          O       0.30338   0.63253   0.64512  -0.50843

