data_crystal

_audit_creation_method 'AiiDA-DDEC plugin'

_cell_length_a        18.04790
_cell_length_b        18.04265
_cell_length_c        19.73880

_cell_angle_alpha     90.06289
_cell_angle_beta     90.07208
_cell_angle_gamma     120.30164

_symmetry_space_group_name_Hall 'P 1'
_symmetry_space_group_name_H-M  'P 1'

loop_
_symmetry_equiv_pos_as_xyz
 'x,y,z'

loop_
_atom_site_label
_atom_site_type_symbol
_atom_site_fract_x
_atom_site_fract_y
_atom_site_fract_z
_atom_site_charge
K          K       0.33323   0.66663   0.75055   0.90847
K          K       0.66677   0.33337   0.24944   0.90847
Cd         Cd      0.21482   0.78506   0.74996   0.84598
Cd         Cd      0.21524   0.42973   0.74997   0.84667
Cd         Cd      0.57031   0.78500   0.74998   0.84630
Cd         Cd      0.78518   0.21494   0.25004   0.84602
Cd         Cd      0.78476   0.57028   0.25003   0.84665
Cd         Cd      0.42970   0.21500   0.25002   0.84631
H          H       0.06038   0.66725   0.53621   0.11492
H          H       0.12019   0.52093   0.39491   0.10559
H          H       0.22419   0.52369   0.47707   0.10601
H          H       0.24312   0.59314   0.58995   0.10845
H          H       0.93758   0.53621   0.24875   0.08617
H          H       0.04363   0.53179   0.32510   0.11744
H          H       0.96588   0.65082   0.47818   0.12365
H          H       0.86260   0.64878   0.39563   0.10528
H          H       0.33180   0.39230   0.53636   0.11515
H          H       0.47928   0.59951   0.39549   0.10540
H          H       0.47645   0.70115   0.47723   0.10763
H          H       0.40643   0.65016   0.58989   0.10836
H          H       0.46354   0.40188   0.24940   0.08618
H          H       0.46802   0.51234   0.32589   0.11909
H          H       0.34907   0.31430   0.47850   0.12366
H          H       0.35126   0.21308   0.39591   0.10170
H          H       0.60762   0.93947   0.53645   0.11333
H          H       0.39988   0.87936   0.39583   0.10552
H          H       0.29833   0.77501   0.47781   0.10541
H          H       0.34963   0.75608   0.59037   0.10780
H          H       0.59779   0.06133   0.24940   0.08611
H          H       0.48720   0.95532   0.32596   0.11643
H          H       0.68594   0.03488   0.47847   0.12387
H          H       0.78717   0.13834   0.39581   0.10185
H          H       0.33287   0.93962   0.96368   0.11647
H          H       0.47871   0.87946   0.10508   0.10519
H          H       0.47625   0.77567   0.02290   0.10647
H          H       0.40740   0.75724   0.90976   0.10768
H          H       0.46402   0.06229   0.25103   0.08609
H          H       0.46796   0.95595   0.17468   0.11774
H          H       0.34899   0.03400   0.02176   0.12396
H          H       0.35181   0.13775   0.10425   0.10206
H          H       0.60724   0.66767   0.96372   0.11512
H          H       0.40019   0.52100   0.10473   0.10514
H          H       0.29863   0.52355   0.02280   0.10576
H          H       0.34946   0.59285   0.90992   0.10748
H          H       0.59790   0.53612   0.25054   0.08613
H          H       0.48755   0.53219   0.17412   0.11931
H          H       0.68562   0.65109   0.02156   0.12408
H          H       0.78652   0.64815   0.10412   0.10227
H          H       0.06032   0.39243   0.96391   0.11486
H          H       0.12125   0.60050   0.10426   0.10521
H          H       0.22520   0.70183   0.02209   0.10559
H          H       0.24343   0.65069   0.90948   0.10722
H          H       0.93871   0.40259   0.25062   0.08576
H          H       0.04506   0.51310   0.17410   0.11635
H          H       0.96524   0.31416   0.02169   0.12407
H          H       0.86151   0.21315   0.10429   0.10149
H          H       0.93963   0.33275   0.46379   0.11513
H          H       0.87981   0.47907   0.60509   0.10560
H          H       0.77582   0.47631   0.52293   0.10591
H          H       0.75689   0.40686   0.41005   0.10826
H          H       0.06243   0.46379   0.75125   0.08619
H          H       0.95638   0.46822   0.67490   0.11740
H          H       0.03413   0.34918   0.52182   0.12366
H          H       0.13740   0.35122   0.60437   0.10538
H          H       0.66821   0.60770   0.46364   0.11517
H          H       0.52072   0.40049   0.60451   0.10541
H          H       0.52355   0.29885   0.52277   0.10755
H          H       0.59357   0.34984   0.41011   0.10841
H          H       0.53646   0.59812   0.75060   0.08611
H          H       0.53198   0.48766   0.67411   0.11793
H          H       0.65093   0.68570   0.52150   0.12372
H          H       0.64874   0.78692   0.60409   0.10173
H          H       0.39239   0.06053   0.46355   0.11323
H          H       0.60013   0.12064   0.60417   0.10541
H          H       0.70168   0.22499   0.52219   0.10552
H          H       0.65037   0.24392   0.40963   0.10795
H          H       0.40221   0.93867   0.75060   0.08615
H          H       0.51280   0.04468   0.67404   0.11830
H          H       0.31407   0.96512   0.52153   0.12387
H          H       0.21283   0.86166   0.60419   0.10170
H          H       0.66713   0.06038   0.03632   0.11653
H          H       0.52130   0.12054   0.89492   0.10532
H          H       0.52376   0.22433   0.97710   0.10638
H          H       0.59260   0.24276   0.09024   0.10763
H          H       0.53598   0.93771   0.74897   0.08603
H          H       0.53204   0.04405   0.82532   0.11592
H          H       0.65101   0.96600   0.97824   0.12398
H          H       0.64820   0.86225   0.89575   0.10213
H          H       0.39277   0.33233   0.03628   0.11640
H          H       0.59981   0.47900   0.89527   0.10520
H          H       0.70137   0.47645   0.97720   0.10595
H          H       0.65055   0.40715   0.09008   0.10769
H          H       0.40211   0.46388   0.74946   0.08623
H          H       0.51246   0.46781   0.82588   0.11940
H          H       0.31438   0.34891   0.97844   0.12383
H          H       0.21348   0.35185   0.89588   0.10214
H          H       0.93968   0.60757   0.03609   0.11485
H          H       0.87875   0.39950   0.89574   0.10496
H          H       0.77480   0.29817   0.97791   0.10556
H          H       0.75658   0.34931   0.09052   0.10703
H          H       0.06129   0.59741   0.74938   0.08577
H          H       0.95495   0.48690   0.82590   0.11918
H          H       0.03476   0.68584   0.97831   0.12407
H          H       0.13850   0.78685   0.89570   0.10153
C          C       0.15187   0.63423   0.56857  -0.03284
C          C       0.09398   0.63402   0.52141  -0.14426
C          C       0.08022   0.59334   0.45805   0.04034
C          C       0.12866   0.55354   0.44310  -0.12661
C          C       0.18721   0.55429   0.48972  -0.08801
C          C       0.19875   0.59370   0.55287  -0.09509
C          C       0.16423   0.68018   0.63461   0.55843
C          C       0.94679   0.56145   0.30010   0.07991
C          C       0.00621   0.55958   0.34350  -0.19211
C          C       0.01742   0.59281   0.41003   0.10908
C          C       0.96374   0.62569   0.42776  -0.17863
C          C       0.90538   0.62510   0.38193   0.07191
C          C       0.36529   0.51741   0.56863  -0.03639
C          C       0.36529   0.45948   0.52160  -0.14320
C          C       0.40625   0.48665   0.45846   0.03964
C          C       0.44638   0.57527   0.44351  -0.12751
C          C       0.44555   0.63326   0.48988  -0.08814
C          C       0.40589   0.60518   0.55287  -0.09417
C          C       0.31971   0.48373   0.63472   0.55991
C          C       0.43840   0.38556   0.30069   0.07866
C          C       0.44029   0.44684   0.34415  -0.19287
C          C       0.40697   0.42436   0.41054   0.10916
C          C       0.37421   0.33750   0.42815  -0.17800
C          C       0.37485   0.27976   0.38228   0.07598
C          C       0.48245   0.84768   0.56884  -0.03541
C          C       0.54035   0.90574   0.52178  -0.14252
C          C       0.51307   0.91949   0.45866   0.03951
C          C       0.42430   0.87088   0.44384  -0.12591
C          C       0.36632   0.81210   0.49034  -0.08727
C          C       0.39454   0.80055   0.55327  -0.09373
C          C       0.51620   0.83538   0.63473   0.55929
C          C       0.61417   0.05261   0.30072   0.07822
C          C       0.55282   0.99319   0.34423  -0.19119
C          C       0.57542   0.98247   0.41063   0.10955
C          C       0.66252   0.03669   0.42816  -0.17889
C          C       0.72032   0.09511   0.38225   0.07667
C          C       0.36609   0.84829   0.93126  -0.03323
C          C       0.36617   0.90607   0.97846  -0.14498
C          C       0.40661   0.91971   0.04186   0.03939
C          C       0.44629   0.87116   0.05684  -0.12521
C          C       0.44574   0.81275   0.01019  -0.08937
C          C       0.40669   0.80146   0.94689  -0.09469
C          C       0.31965   0.83599   0.86551   0.55901
C          C       0.43883   0.05320   0.19970   0.07898
C          C       0.44042   0.99361   0.15631  -0.19251
C          C       0.40711   0.98250   0.08985   0.10955
C          C       0.37433   0.03626   0.07212  -0.17884
C          C       0.37527   0.09481   0.11794   0.07519
C          C       0.48240   0.63444   0.93132  -0.03653
C          C       0.54010   0.63422   0.97843  -0.14374
C          C       0.51303   0.59345   0.04162   0.04064
C          C       0.42444   0.55355   0.05657  -0.12657
C          C       0.36649   0.55424   0.01006  -0.08792
C          C       0.39455   0.59362   0.94694  -0.09320
C          C       0.51676   0.68080   0.86556   0.55905
C          C       0.61417   0.56127   0.19927   0.07851
C          C       0.55300   0.55965   0.15586  -0.19367
C          C       0.57546   0.59293   0.08949   0.10938
C          C       0.66230   0.62571   0.07184  -0.17854
C          C       0.71992   0.62477   0.11769   0.07565
C          C       0.15212   0.51759   0.93110  -0.03585
C          C       0.09418   0.45980   0.97831  -0.14340
C          C       0.08055   0.48713   0.04143   0.04093
C          C       0.12934   0.57593   0.05621  -0.12598
C          C       0.18793   0.63382   0.00960  -0.08765
C          C       0.19916   0.60559   0.94656  -0.09393
C          C       0.16440   0.48334   0.86542   0.55965
C          C       0.94742   0.38618   0.19933   0.07946
C          C       0.00696   0.44747   0.15584  -0.19087
C          C       0.01759   0.42479   0.08946   0.10788
C          C       0.96334   0.33768   0.07194  -0.17837
C          C       0.90482   0.27998   0.11784   0.07619
C          C       0.84813   0.36577   0.43143  -0.03292
C          C       0.90602   0.36599   0.47859  -0.14441
C          C       0.91978   0.40666   0.54195   0.04049
C          C       0.87135   0.44646   0.55690  -0.12676
C          C       0.81280   0.44571   0.51028  -0.08803
C          C       0.80125   0.40630   0.44713  -0.09497
C          C       0.83577   0.31982   0.36539   0.55840
C          C       0.05321   0.43855   0.69990   0.07985
C          C       0.99379   0.44043   0.65650  -0.19232
C          C       0.98259   0.40719   0.58997   0.10907
C          C       0.03627   0.37431   0.57224  -0.17854
C          C       0.09463   0.37490   0.61807   0.07192
C          C       0.63472   0.48260   0.43137  -0.03634
C          C       0.63472   0.54052   0.47840  -0.14307
C          C       0.59376   0.51336   0.54154   0.03960
C          C       0.55362   0.42473   0.55649  -0.12743
C          C       0.55446   0.36674   0.51011  -0.08816
C          C       0.59411   0.39482   0.44713  -0.09424
C          C       0.68029   0.51627   0.36528   0.55977
C          C       0.56161   0.61445   0.69931   0.07873
C          C       0.55971   0.55316   0.65584  -0.19185
C          C       0.59303   0.57564   0.58946   0.10929
C          C       0.62580   0.66250   0.57185  -0.17805
C          C       0.62515   0.72025   0.61772   0.07605
C          C       0.51756   0.15232   0.43116  -0.03569
C          C       0.45965   0.09426   0.47822  -0.14254
C          C       0.48693   0.08052   0.54134   0.03937
C          C       0.57571   0.12912   0.55616  -0.12590
C          C       0.63369   0.18790   0.50966  -0.08714
C          C       0.60546   0.19945   0.44673  -0.09366
C          C       0.48380   0.16463   0.36527   0.55945
C          C       0.38583   0.94739   0.69928   0.07816
C          C       0.44718   0.00681   0.65577  -0.19239
C          C       0.42458   0.01753   0.58937   0.10958
C          C       0.33748   0.96331   0.57184  -0.17912
C          C       0.27969   0.90489   0.61775   0.07671
C          C       0.63392   0.15171   0.06874  -0.03326
C          C       0.63383   0.09393   0.02154  -0.14490
C          C       0.59340   0.08029   0.95814   0.03955
C          C       0.55371   0.12884   0.94316  -0.12519
C          C       0.55426   0.18726   0.98981  -0.08943
C          C       0.59332   0.19854   0.05311  -0.09469
C          C       0.68036   0.16401   0.13449   0.55901
C          C       0.56117   0.94680   0.80030   0.07910
C          C       0.55959   0.00639   0.84369  -0.19124
C          C       0.59290   0.01750   0.91015   0.10954
C          C       0.62567   0.96374   0.92788  -0.17872
C          C       0.62474   0.90519   0.88206   0.07512
C          C       0.51761   0.36556   0.06868  -0.03672
C          C       0.45990   0.36578   0.02157  -0.14506
C          C       0.48698   0.40656   0.95838   0.04044
C          C       0.57557   0.44645   0.94343  -0.12642
C          C       0.63352   0.44576   0.98994  -0.08789
C          C       0.60545   0.40639   0.05306  -0.09318
C          C       0.48325   0.31920   0.13444   0.55909
C          C       0.38583   0.43873   0.80073   0.07845
C          C       0.44701   0.44035   0.84414  -0.19349
C          C       0.42454   0.40708   0.91051   0.10956
C          C       0.33770   0.37429   0.92816  -0.17864
C          C       0.28009   0.37523   0.88231   0.07565
C          C       0.84788   0.48241   0.06890  -0.03588
C          C       0.90583   0.54020   0.02169  -0.14335
C          C       0.91946   0.51287   0.95857   0.04093
C          C       0.87067   0.42408   0.94379  -0.12599
C          C       0.81207   0.36618   0.99040  -0.08763
C          C       0.80085   0.39442   0.05344  -0.09392
C          C       0.83561   0.51666   0.13458   0.55954
C          C       0.05258   0.61382   0.80067   0.07932
C          C       0.99304   0.55253   0.84416  -0.19329
C          C       0.98241   0.57522   0.91054   0.10773
C          C       0.03667   0.66232   0.92806  -0.17848
C          C       0.09518   0.72002   0.88216   0.07628
N          N       0.89653   0.59402   0.31808  -0.25151
N          N       0.40587   0.30239   0.31852  -0.25050
N          N       0.69750   0.10340   0.31850  -0.25036
N          N       0.40650   0.10366   0.18172  -0.24927
N          N       0.69722   0.59356   0.18138  -0.24910
N          N       0.89650   0.30286   0.18154  -0.24948
N          N       0.10347   0.40598   0.68192  -0.25139
N          N       0.59414   0.69761   0.68148  -0.25058
N          N       0.30250   0.89660   0.68150  -0.25053
N          N       0.59350   0.89634   0.81828  -0.24918
N          N       0.30278   0.40645   0.81862  -0.24926
N          N       0.10350   0.69714   0.81846  -0.24934
O          O       0.12263   0.71856   0.64625  -0.57022
O          O       0.21855   0.68059   0.67696  -0.62325
O          O       0.28167   0.40350   0.64650  -0.57091
O          O       0.31922   0.53777   0.67691  -0.62295
O          O       0.59646   0.87793   0.64657  -0.56991
O          O       0.46216   0.78027   0.67669  -0.62356
O          O       0.28085   0.87733   0.85497  -0.56936
O          O       0.31916   0.78212   0.82251  -0.62479
O          O       0.59715   0.71976   0.85469  -0.56834
O          O       0.46295   0.68088   0.82282  -0.62397
O          O       0.12322   0.40282   0.85482  -0.56870
O          O       0.21807   0.53716   0.82246  -0.62561
O          O       0.87737   0.28144   0.35375  -0.56993
O          O       0.78145   0.31941   0.32304  -0.62343
O          O       0.71833   0.59651   0.35350  -0.57081
O          O       0.68078   0.46223   0.32309  -0.62286
O          O       0.40354   0.12207   0.35343  -0.57025
O          O       0.53785   0.21973   0.32331  -0.62336
O          O       0.71916   0.12267   0.14503  -0.56917
O          O       0.68084   0.21788   0.17749  -0.62493
O          O       0.40285   0.28024   0.14531  -0.56873
O          O       0.53706   0.31913   0.17718  -0.62376
O          O       0.87679   0.59718   0.14518  -0.56849
O          O       0.78194   0.46284   0.17754  -0.62574

