data_crystal

_audit_creation_method 'AiiDA-DDEC plugin'

_cell_length_a        17.96318
_cell_length_b        17.96318
_cell_length_c        28.52048

_cell_angle_alpha     90.00000
_cell_angle_beta     90.00000
_cell_angle_gamma     90.00000

_symmetry_space_group_name_Hall 'P 1'
_symmetry_space_group_name_H-M  'P 1'

loop_
_symmetry_equiv_pos_as_xyz
 'x,y,z'

loop_
_atom_site_label
_atom_site_type_symbol
_atom_site_fract_x
_atom_site_fract_y
_atom_site_fract_z
_atom_site_charge
Zn         Zn      0.53785   0.03785   0.97061   0.97477
Zn         Zn      0.96215   0.46215   0.97061   0.97479
Zn         Zn      0.46215   0.53785   0.47061   0.97493
Zn         Zn      0.03785   0.96215   0.47061   0.97484
Zn         Zn      0.96215   0.03785   0.52939   0.97491
Zn         Zn      0.53785   0.46215   0.52939   0.97494
Zn         Zn      0.03785   0.53785   0.02939   0.97480
Zn         Zn      0.46215   0.96215   0.02939   0.97480
Zn         Zn      0.25000   0.17965   0.25000   0.96705
Zn         Zn      0.25000   0.32035   0.25000   0.96702
Zn         Zn      0.32035   0.25000   0.75000   0.96701
Zn         Zn      0.17965   0.25000   0.75000   0.96706
Zn         Zn      0.75000   0.82035   0.75000   0.96700
Zn         Zn      0.75000   0.67965   0.75000   0.96702
Zn         Zn      0.67965   0.75000   0.25000   0.96703
Zn         Zn      0.82035   0.75000   0.25000   0.96703
H          H       0.38400   0.13563   0.12773   0.13506
H          H       0.43682   0.36625   0.15381   0.13070
H          H       0.54194   0.24847   0.03891   0.13007
H          H       0.49528   0.39455   0.01172   0.14721
H          H       0.11600   0.36437   0.12773   0.13498
H          H       0.06318   0.13375   0.15381   0.13068
H          H       0.95806   0.25153   0.03891   0.13020
H          H       0.00471   0.10545   0.01172   0.14670
H          H       0.36437   0.38400   0.62773   0.13499
H          H       0.13375   0.43682   0.65381   0.13065
H          H       0.25153   0.54194   0.53891   0.13017
H          H       0.10545   0.49528   0.51171   0.14720
H          H       0.13563   0.11600   0.62773   0.13500
H          H       0.36625   0.06318   0.65381   0.13064
H          H       0.24847   0.95806   0.53891   0.13025
H          H       0.39455   0.00471   0.51171   0.14719
H          H       0.11600   0.13563   0.37227   0.13506
H          H       0.06318   0.36625   0.34619   0.13070
H          H       0.95806   0.24847   0.46109   0.13009
H          H       0.00471   0.39455   0.48828   0.14666
H          H       0.38400   0.36437   0.37227   0.13502
H          H       0.43682   0.13375   0.34619   0.13071
H          H       0.54194   0.25153   0.46109   0.13004
H          H       0.49528   0.10545   0.48828   0.14713
H          H       0.13563   0.38400   0.87227   0.13508
H          H       0.36625   0.43682   0.84619   0.13070
H          H       0.24847   0.54194   0.96108   0.12996
H          H       0.39455   0.49528   0.98828   0.14664
H          H       0.36437   0.11600   0.87227   0.13498
H          H       0.13375   0.06318   0.84619   0.13071
H          H       0.25153   0.95806   0.96108   0.13001
H          H       0.10545   0.00471   0.98828   0.14663
H          H       0.61600   0.86437   0.87227   0.13498
H          H       0.56318   0.63374   0.84619   0.13071
H          H       0.45806   0.75152   0.96108   0.13001
H          H       0.50471   0.60544   0.98828   0.14664
H          H       0.88400   0.63563   0.87227   0.13517
H          H       0.93682   0.86625   0.84619   0.13067
H          H       0.04194   0.74847   0.96108   0.13000
H          H       0.99529   0.89455   0.98828   0.14663
H          H       0.63563   0.61600   0.37227   0.13506
H          H       0.86625   0.56318   0.34619   0.13068
H          H       0.74847   0.45806   0.46109   0.13006
H          H       0.89455   0.50471   0.48828   0.14669
H          H       0.86437   0.88400   0.37227   0.13503
H          H       0.63374   0.93682   0.34619   0.13072
H          H       0.75152   0.04194   0.46109   0.13006
H          H       0.60544   0.99529   0.48828   0.14714
H          H       0.88400   0.86437   0.62773   0.13499
H          H       0.93682   0.63374   0.65381   0.13065
H          H       0.04194   0.75152   0.53891   0.13017
H          H       0.99529   0.60544   0.51171   0.14679
H          H       0.61600   0.63563   0.62773   0.13506
H          H       0.56318   0.86625   0.65381   0.13059
H          H       0.45806   0.74847   0.53891   0.13023
H          H       0.50471   0.89455   0.51171   0.14724
H          H       0.86437   0.61600   0.12773   0.13497
H          H       0.63374   0.56318   0.15381   0.13069
H          H       0.75152   0.45806   0.03891   0.13015
H          H       0.60544   0.50471   0.01172   0.14715
H          H       0.63563   0.88400   0.12773   0.13510
H          H       0.86625   0.93682   0.15381   0.13069
H          H       0.74847   0.04194   0.03891   0.13013
H          H       0.89455   0.99529   0.01172   0.14672
H          H       0.60851   0.39149   0.14246   0.14325
H          H       0.89149   0.10851   0.14246   0.14325
H          H       0.10851   0.60851   0.64246   0.14318
H          H       0.39149   0.89149   0.64246   0.14321
H          H       0.89149   0.39149   0.35753   0.14332
H          H       0.60851   0.10851   0.35753   0.14330
H          H       0.39149   0.60851   0.85753   0.14335
H          H       0.10851   0.89149   0.85753   0.14342
C          C       0.46281   0.18471   0.08007  -0.02825
C          C       0.41490   0.18556   0.11859  -0.08954
C          C       0.44532   0.31557   0.13371  -0.19090
C          C       0.49342   0.31334   0.09548   0.12140
C          C       0.50333   0.24953   0.06818  -0.22411
C          C       0.53420   0.41208   0.03845  -0.10612
C          C       0.35092   0.25139   0.18468   0.57134
C          C       0.47293   0.11608   0.05176   0.58073
C          C       0.40503   0.25051   0.14545  -0.03666
C          C       0.03719   0.31529   0.08007  -0.02813
C          C       0.08510   0.31444   0.11859  -0.08951
C          C       0.05468   0.18443   0.13371  -0.19081
C          C       0.00658   0.18666   0.09548   0.12140
C          C       0.99666   0.25047   0.06818  -0.22429
C          C       0.96580   0.08792   0.03844  -0.10548
C          C       0.14908   0.24861   0.18468   0.57135
C          C       0.02707   0.38392   0.05176   0.58052
C          C       0.09497   0.24949   0.14545  -0.03674
C          C       0.31529   0.46281   0.58007  -0.02830
C          C       0.31444   0.41490   0.61859  -0.08943
C          C       0.18443   0.44532   0.63371  -0.19072
C          C       0.18666   0.49342   0.59548   0.12132
C          C       0.25047   0.50333   0.56818  -0.22416
C          C       0.08792   0.53420   0.53844  -0.10604
C          C       0.24861   0.35092   0.68468   0.57147
C          C       0.38392   0.47293   0.55176   0.58069
C          C       0.24949   0.40503   0.64544  -0.03686
C          C       0.18471   0.03719   0.58007  -0.02829
C          C       0.18556   0.08510   0.61859  -0.08943
C          C       0.31557   0.05468   0.63371  -0.19073
C          C       0.31334   0.00658   0.59548   0.12124
C          C       0.24953   0.99666   0.56818  -0.22420
C          C       0.41208   0.96580   0.53844  -0.10597
C          C       0.25139   0.14908   0.68468   0.57150
C          C       0.11608   0.02707   0.55176   0.58055
C          C       0.25051   0.09497   0.64544  -0.03683
C          C       0.03719   0.18471   0.41993  -0.02813
C          C       0.08510   0.18556   0.38141  -0.08959
C          C       0.05468   0.31557   0.36629  -0.19087
C          C       0.00658   0.31334   0.40452   0.12137
C          C       0.99666   0.24953   0.43182  -0.22425
C          C       0.96580   0.41208   0.46155  -0.10551
C          C       0.14908   0.25139   0.31532   0.57129
C          C       0.02707   0.11608   0.44824   0.58070
C          C       0.09497   0.25051   0.35455  -0.03664
C          C       0.46281   0.31529   0.41993  -0.02809
C          C       0.41490   0.31444   0.38141  -0.08956
C          C       0.44532   0.18443   0.36629  -0.19085
C          C       0.49342   0.18666   0.40452   0.12145
C          C       0.50333   0.25047   0.43182  -0.22422
C          C       0.53420   0.08792   0.46155  -0.10611
C          C       0.35092   0.24861   0.31532   0.57132
C          C       0.47293   0.38392   0.44824   0.58074
C          C       0.40503   0.24949   0.35455  -0.03665
C          C       0.18471   0.46281   0.91993  -0.02813
C          C       0.18556   0.41490   0.88141  -0.08962
C          C       0.31557   0.44532   0.86628  -0.19085
C          C       0.31334   0.49342   0.90452   0.12151
C          C       0.24953   0.50333   0.93182  -0.22423
C          C       0.41208   0.53420   0.96155  -0.10546
C          C       0.25139   0.35092   0.81532   0.57129
C          C       0.11608   0.47293   0.94824   0.58068
C          C       0.25051   0.40503   0.85455  -0.03662
C          C       0.31529   0.03719   0.91993  -0.02820
C          C       0.31444   0.08510   0.88141  -0.08952
C          C       0.18443   0.05468   0.86628  -0.19088
C          C       0.18666   0.00658   0.90452   0.12149
C          C       0.25047   0.99666   0.93182  -0.22424
C          C       0.08792   0.96580   0.96155  -0.10559
C          C       0.24861   0.14908   0.81532   0.57128
C          C       0.38392   0.02707   0.94824   0.58075
C          C       0.24949   0.09497   0.85455  -0.03659
C          C       0.53719   0.81529   0.91993  -0.02800
C          C       0.58510   0.81444   0.88141  -0.08962
C          C       0.55468   0.68443   0.86628  -0.19085
C          C       0.50658   0.68666   0.90452   0.12142
C          C       0.49667   0.75047   0.93182  -0.22428
C          C       0.46580   0.58792   0.96155  -0.10557
C          C       0.64908   0.74861   0.81532   0.57124
C          C       0.52707   0.88392   0.94824   0.58065
C          C       0.59497   0.74949   0.85455  -0.03654
C          C       0.96281   0.68471   0.91993  -0.02818
C          C       0.91490   0.68556   0.88141  -0.08966
C          C       0.94532   0.81557   0.86628  -0.19088
C          C       0.99342   0.81334   0.90452   0.12148
C          C       0.00333   0.74952   0.93182  -0.22426
C          C       0.03420   0.91208   0.96155  -0.10550
C          C       0.85092   0.75139   0.81532   0.57110
C          C       0.97293   0.61608   0.94824   0.58066
C          C       0.90503   0.75051   0.85455  -0.03655
C          C       0.68471   0.53719   0.41993  -0.02818
C          C       0.68556   0.58510   0.38141  -0.08958
C          C       0.81557   0.55468   0.36629  -0.19085
C          C       0.81334   0.50658   0.40452   0.12139
C          C       0.74952   0.49667   0.43182  -0.22418
C          C       0.91208   0.46580   0.46155  -0.10549
C          C       0.75139   0.64908   0.31532   0.57132
C          C       0.61608   0.52707   0.44824   0.58066
C          C       0.75051   0.59497   0.35455  -0.03664
C          C       0.81529   0.96281   0.41993  -0.02812
C          C       0.81444   0.91490   0.38141  -0.08961
C          C       0.68443   0.94532   0.36629  -0.19081
C          C       0.68666   0.99342   0.40452   0.12138
C          C       0.75047   0.00333   0.43182  -0.22421
C          C       0.58792   0.03420   0.46155  -0.10621
C          C       0.74861   0.85092   0.31532   0.57129
C          C       0.88392   0.97293   0.44824   0.58069
C          C       0.74949   0.90503   0.35455  -0.03664
C          C       0.96281   0.81529   0.58007  -0.02826
C          C       0.91490   0.81444   0.61859  -0.08945
C          C       0.94532   0.68443   0.63371  -0.19071
C          C       0.99342   0.68666   0.59548   0.12123
C          C       0.00333   0.75047   0.56818  -0.22415
C          C       0.03420   0.58792   0.53844  -0.10535
C          C       0.85092   0.74861   0.68468   0.57147
C          C       0.97293   0.88392   0.55176   0.58062
C          C       0.90503   0.74949   0.64544  -0.03685
C          C       0.53719   0.68471   0.58007  -0.02825
C          C       0.58510   0.68556   0.61859  -0.08952
C          C       0.55468   0.81557   0.63371  -0.19071
C          C       0.50658   0.81334   0.59548   0.12134
C          C       0.49667   0.74952   0.56818  -0.22419
C          C       0.46580   0.91208   0.53844  -0.10615
C          C       0.64908   0.75139   0.68468   0.57149
C          C       0.52707   0.61608   0.55176   0.58057
C          C       0.59497   0.75051   0.64544  -0.03683
C          C       0.81529   0.53719   0.08007  -0.02812
C          C       0.81444   0.58510   0.11859  -0.08951
C          C       0.68443   0.55468   0.13371  -0.19076
C          C       0.68666   0.50658   0.09548   0.12139
C          C       0.75047   0.49667   0.06818  -0.22422
C          C       0.58792   0.46580   0.03845  -0.10615
C          C       0.74861   0.64908   0.18468   0.57141
C          C       0.88392   0.52707   0.05176   0.58056
C          C       0.74949   0.59497   0.14545  -0.03677
C          C       0.68471   0.96281   0.08007  -0.02822
C          C       0.68556   0.91490   0.11859  -0.08957
C          C       0.81557   0.94532   0.13371  -0.19093
C          C       0.81334   0.99342   0.09548   0.12139
C          C       0.74952   0.00333   0.06818  -0.22424
C          C       0.91208   0.03420   0.03844  -0.10540
C          C       0.75139   0.85092   0.18468   0.57133
C          C       0.61608   0.97293   0.05176   0.58071
C          C       0.75051   0.90503   0.14545  -0.03668
C          C       0.58921   0.41079   0.10877  -0.00755
C          C       0.91079   0.08921   0.10877  -0.00758
C          C       0.08921   0.58921   0.60877  -0.00772
C          C       0.41079   0.91079   0.60877  -0.00759
C          C       0.91079   0.41079   0.39123  -0.00749
C          C       0.58921   0.08921   0.39123  -0.00739
C          C       0.41079   0.58921   0.89123  -0.00740
C          C       0.08921   0.91079   0.89123  -0.00751
N          N       0.53427   0.37900   0.08257   0.06102
N          N       0.96572   0.12100   0.08257   0.06083
N          N       0.12100   0.53427   0.58257   0.06098
N          N       0.37900   0.96572   0.58257   0.06097
N          N       0.96572   0.37900   0.41743   0.06087
N          N       0.53427   0.12100   0.41743   0.06096
N          N       0.37900   0.53427   0.91743   0.06082
N          N       0.12100   0.96572   0.91743   0.06085
N          N       0.46572   0.62100   0.91743   0.06090
N          N       0.03427   0.87899   0.91743   0.06088
N          N       0.87899   0.46572   0.41743   0.06088
N          N       0.62100   0.03427   0.41743   0.06096
N          N       0.03427   0.62100   0.58257   0.06102
N          N       0.46572   0.87899   0.58257   0.06103
N          N       0.62100   0.46572   0.08257   0.06103
N          N       0.87899   0.03427   0.08257   0.06092
O          O       0.51130   0.12267   0.01390  -0.57020
O          O       0.44388   0.05556   0.06706  -0.55032
O          O       0.31841   0.18933   0.19448  -0.56016
O          O       0.33987   0.31366   0.20586  -0.56004
O          O       0.98870   0.37733   0.01390  -0.57011
O          O       0.05612   0.44444   0.06706  -0.55025
O          O       0.18159   0.31067   0.19448  -0.56018
O          O       0.16013   0.18634   0.20586  -0.56000
O          O       0.37733   0.51130   0.51390  -0.57009
O          O       0.44444   0.44388   0.56706  -0.55038
O          O       0.31067   0.31841   0.69448  -0.56021
O          O       0.18634   0.33987   0.70586  -0.56006
O          O       0.12267   0.98870   0.51390  -0.57001
O          O       0.05556   0.05612   0.56706  -0.55033
O          O       0.18933   0.18159   0.69448  -0.56022
O          O       0.31366   0.16013   0.70586  -0.56007
O          O       0.98870   0.12267   0.48610  -0.57028
O          O       0.05612   0.05556   0.43294  -0.55023
O          O       0.18159   0.18933   0.30552  -0.56015
O          O       0.16013   0.31366   0.29413  -0.56000
O          O       0.51130   0.37733   0.48610  -0.57029
O          O       0.44388   0.44444   0.43294  -0.55026
O          O       0.31841   0.31067   0.30552  -0.56018
O          O       0.33987   0.18634   0.29413  -0.56000
O          O       0.12267   0.51130   0.98610  -0.57040
O          O       0.05556   0.44388   0.93294  -0.55006
O          O       0.18933   0.31841   0.80552  -0.56017
O          O       0.31366   0.33987   0.79413  -0.55997
O          O       0.37733   0.98870   0.98610  -0.57036
O          O       0.44444   0.05612   0.93294  -0.55014
O          O       0.31067   0.18159   0.80552  -0.56019
O          O       0.18634   0.16013   0.79413  -0.55995
O          O       0.48870   0.87733   0.98610  -0.57034
O          O       0.55612   0.94444   0.93294  -0.55016
O          O       0.68159   0.81067   0.80552  -0.56019
O          O       0.66013   0.68634   0.79413  -0.55992
O          O       0.01130   0.62267   0.98610  -0.57043
O          O       0.94388   0.55556   0.93294  -0.55002
O          O       0.81841   0.68933   0.80552  -0.56001
O          O       0.83987   0.81366   0.79413  -0.55996
O          O       0.62267   0.48870   0.48610  -0.57025
O          O       0.55556   0.55612   0.43294  -0.55021
O          O       0.68933   0.68159   0.30552  -0.56014
O          O       0.81366   0.66013   0.29413  -0.56003
O          O       0.87733   0.01130   0.48610  -0.57026
O          O       0.94444   0.94388   0.43294  -0.55023
O          O       0.81067   0.81841   0.30552  -0.56018
O          O       0.68634   0.83987   0.29413  -0.55994
O          O       0.01130   0.87733   0.51390  -0.57004
O          O       0.94388   0.94444   0.56706  -0.55041
O          O       0.81841   0.81067   0.69448  -0.56021
O          O       0.83987   0.68634   0.70586  -0.56005
O          O       0.48870   0.62267   0.51390  -0.57004
O          O       0.55612   0.55556   0.56706  -0.55034
O          O       0.68159   0.68933   0.69448  -0.56019
O          O       0.66013   0.81366   0.70586  -0.56009
O          O       0.87733   0.48870   0.01390  -0.57013
O          O       0.94444   0.55612   0.06706  -0.55030
O          O       0.81067   0.68159   0.19448  -0.56023
O          O       0.68634   0.66013   0.20586  -0.56000
O          O       0.62267   0.01130   0.01390  -0.57023
O          O       0.55556   0.94388   0.06706  -0.55027
O          O       0.68933   0.81841   0.19448  -0.56009
O          O       0.81366   0.83987   0.20586  -0.56007

