data_crystal

_audit_creation_method 'AiiDA-DDEC plugin'

_cell_length_a        10.60031
_cell_length_b        14.55525
_cell_length_c        25.53260

_cell_angle_alpha     90.00091
_cell_angle_beta     91.83574
_cell_angle_gamma     89.99955

_symmetry_space_group_name_Hall 'P 1'
_symmetry_space_group_name_H-M  'P 1'

loop_
_symmetry_equiv_pos_as_xyz
 'x,y,z'

loop_
_atom_site_label
_atom_site_type_symbol
_atom_site_fract_x
_atom_site_fract_y
_atom_site_fract_z
_atom_site_charge
Cu         Cu      0.76929   0.21561   0.83606   0.26622
Cu         Cu      0.73064   0.71551   0.66394   0.26623
Cu         Cu      0.24024   0.78130   0.16308   0.26219
Cu         Cu      0.25977   0.28132   0.33692   0.26210
Sn         Sn      0.95865   0.06464   0.98935   0.58220
Sn         Sn      0.54133   0.56464   0.51064   0.58212
Sn         Sn      0.45529   0.57910   0.00272   0.57369
Sn         Sn      0.04472   0.07909   0.49728   0.57376
H          H       0.07767   0.93481   0.79876   0.11670
H          H       0.28507   0.02463   0.83335   0.12179
H          H       0.44164   0.17536   0.01227   0.13209
H          H       0.34821   0.19411   0.10821   0.12526
H          H       0.66558   0.90734   0.82919   0.11234
H          H       0.61236   0.84383   0.74149   0.08326
H          H       0.96537   0.72429   0.73133   0.07680
H          H       0.03345   0.78379   0.81834   0.12467
H          H       0.50372   0.98028   0.93311   0.12483
H          H       0.69522   0.03960   0.89061   0.07985
H          H       0.52059   0.28868   0.85567   0.08538
H          H       0.32224   0.23865   0.89379   0.11278
H          H       0.00312   0.16197   0.88751   0.08349
H          H       0.17643   0.23393   0.94131   0.11291
H          H       0.97156   0.48941   0.93170   0.11918
H          H       0.79758   0.40481   0.88543   0.08800
H          H       0.08009   0.32706   0.04102   0.12931
H          H       0.19987   0.34627   0.13430   0.11821
H          H       0.61713   0.53249   0.20309   0.11945
H          H       0.81614   0.60343   0.15458   0.12003
H          H       0.20374   0.49087   0.18341   0.10761
H          H       0.15738   0.43634   0.27218   0.07826
H          H       0.51557   0.32637   0.29327   0.08097
H          H       0.57504   0.37259   0.20393   0.12351
H          H       0.42232   0.43482   0.70125   0.11683
H          H       0.21489   0.52461   0.66666   0.12195
H          H       0.05839   0.67537   0.48774   0.13223
H          H       0.15179   0.69410   0.39180   0.12526
H          H       0.83444   0.40731   0.67083   0.11221
H          H       0.88760   0.34383   0.75853   0.08332
H          H       0.53461   0.22428   0.76867   0.07687
H          H       0.46654   0.28375   0.68166   0.12465
H          H       0.99626   0.48027   0.56688   0.12473
H          H       0.80480   0.53961   0.60940   0.07978
H          H       0.97938   0.78869   0.64432   0.08547
H          H       0.17774   0.73867   0.60619   0.11284
H          H       0.49681   0.66199   0.61251   0.08349
H          H       0.32358   0.73395   0.55868   0.11299
H          H       0.52845   0.98941   0.56832   0.11924
H          H       0.70242   0.90480   0.61458   0.08812
H          H       0.41992   0.82708   0.45899   0.12929
H          H       0.30020   0.84630   0.36570   0.11806
H          H       0.88288   0.03250   0.29691   0.11939
H          H       0.68386   0.10341   0.34541   0.11991
H          H       0.29625   0.99090   0.31659   0.10782
H          H       0.34264   0.93638   0.22782   0.07837
H          H       0.98446   0.82637   0.20673   0.08074
H          H       0.92499   0.87259   0.29607   0.12330
H          H       0.94744   0.04013   0.20284   0.11557
H          H       0.73768   0.95221   0.16840   0.12473
H          H       0.57187   0.81555   0.98896   0.11383
H          H       0.66857   0.79453   0.89398   0.12424
H          H       0.33927   0.08874   0.17388   0.11299
H          H       0.38257   0.14577   0.26378   0.07966
H          H       0.02343   0.25584   0.27245   0.07838
H          H       0.96532   0.20347   0.18291   0.12371
H          H       0.49972   0.01611   0.06673   0.12048
H          H       0.31126   0.95247   0.10966   0.08691
H          H       0.49464   0.70535   0.14173   0.08288
H          H       0.69175   0.76071   0.10261   0.11404
H          H       0.04021   0.85139   0.08912   0.09697
H          H       0.85634   0.78357   0.04023   0.11599
H          H      -0.00255   0.51530   0.08351   0.12398
H          H       0.18294   0.59332   0.12610   0.07945
H          H       0.93104   0.67092   0.95703   0.13288
H          H       0.81726   0.64499   0.86303   0.11682
H          H       0.40397   0.45220   0.79913   0.11937
H          H       0.19929   0.38634   0.84641   0.12224
H          H       0.79071   0.50868   0.81426   0.11014
H          H       0.82765   0.55170   0.72234   0.07498
H          H       0.46888   0.66205   0.70345   0.07888
H          H       0.41894   0.62712   0.79552   0.12222
H          H       0.55259   0.54013   0.29716   0.11552
H          H       0.76237   0.45224   0.33159   0.12492
H          H       0.92809   0.31555   0.51104   0.11381
H          H       0.83143   0.29455   0.60603   0.12429
H          H       0.16071   0.58877   0.32611   0.11290
H          H       0.11745   0.64578   0.23620   0.07963
H          H       0.47658   0.75585   0.22755   0.07836
H          H       0.53468   0.70351   0.31709   0.12377
H          H       0.00028   0.51612   0.43327   0.12042
H          H       0.18872   0.45246   0.39034   0.08705
H          H       0.00538   0.20535   0.35827   0.08280
H          H       0.80826   0.26070   0.39741   0.11399
H          H       0.45982   0.35137   0.41087   0.09702
H          H       0.64364   0.28356   0.45977   0.11612
H          H       0.50258   0.01530   0.41648   0.12404
H          H       0.31707   0.09330   0.37389   0.07933
H          H       0.56895   0.17090   0.54297   0.13294
H          H       0.68270   0.14497   0.63697   0.11702
H          H       0.09601   0.95220   0.70088   0.11939
H          H       0.30069   0.88635   0.65361   0.12210
H          H       0.70929   0.00866   0.68575   0.11006
H          H       0.67232   0.05165   0.77767   0.07529
H          H       0.03108   0.16204   0.79657   0.07876
H          H       0.08101   0.12713   0.70449   0.12209
C          C       0.01856   0.94551   0.88257   0.19034
C          C       0.09940   0.95729   0.83838  -0.20680
C          C       0.20482   0.00421   0.85583  -0.19326
C          C       0.18950   0.02305   0.91052   0.14514
C          C       0.27670   0.07163   0.94236  -0.08175
C          C       0.26561   0.09352   0.99586   0.14055
C          C       0.35481   0.14661   0.02640  -0.19008
C          C       0.30728   0.15532   0.07580  -0.20503
C          C       0.18908   0.10642   0.07574   0.17849
C          C       0.89887   0.90080   0.88062  -0.14444
C          C       0.85832   0.85677   0.83129   0.13279
C          C       0.73566   0.86754   0.80885  -0.18691
C          C       0.70541   0.83230   0.75962   0.06653
C          C       0.90234   0.76734   0.75355   0.05772
C          C       0.94023   0.80100   0.80224  -0.18774
C          C       0.39414   0.10403   0.91712   0.13100
C          C       0.50240   0.04862   0.91582  -0.18061
C          C       0.61023   0.08149   0.89221   0.07091
C          C       0.51307   0.22011   0.87238   0.07344
C          C       0.40168   0.19154   0.89450  -0.18232
C          C      -0.00122   0.23409   0.89857   0.03836
C          C       0.09686   0.27516   0.92736  -0.18918
C          C       0.09377   0.36956   0.93752   0.13349
C          C       0.98260   0.41669   0.92305  -0.17678
C          C       0.88553   0.36999   0.89632   0.08113
C          C       0.20998   0.41712   0.95819  -0.07487
C          C       0.23470   0.41826   0.01242   0.15001
C          C       0.16264   0.36884   0.05007  -0.17599
C          C       0.22378   0.37902   0.09785  -0.19541
C          C       0.33260   0.43751   0.09030   0.18290
C          C       0.42235   0.46311   0.13030  -0.13408
C          C       0.54027   0.50721   0.12116   0.17612
C          C       0.62948   0.53760   0.16127  -0.21474
C          C       0.73129   0.57457   0.13643  -0.19894
C          C       0.29157   0.44715   0.91890   0.14474
C          C       0.39433   0.43636   0.18433   0.12636
C          C       0.27553   0.45327   0.20587  -0.18945
C          C       0.24950   0.42378   0.25593   0.07230
C          C       0.44869   0.36287   0.26760   0.07037
C          C       0.48197   0.38976   0.21773  -0.19558
C          C       0.48141   0.44549   0.61743   0.18989
C          C       0.40058   0.45729   0.66163  -0.20668
C          C       0.29516   0.50419   0.64418  -0.19301
C          C       0.31048   0.52304   0.58949   0.14530
C          C       0.22331   0.57163   0.55764  -0.08217
C          C       0.23439   0.59349   0.50414   0.14077
C          C       0.14521   0.64661   0.47361  -0.19038
C          C       0.19273   0.65532   0.42420  -0.20514
C          C       0.31094   0.60643   0.42425   0.17844
C          C       0.60110   0.40078   0.61938  -0.14415
C          C       0.64166   0.35676   0.66872   0.13269
C          C       0.76433   0.36754   0.69116  -0.18691
C          C       0.79456   0.33231   0.74039   0.06661
C          C       0.59763   0.26734   0.74646   0.05796
C          C       0.55975   0.30099   0.69776  -0.18785
C          C       0.10586   0.60403   0.58287   0.13125
C          C      -0.00239   0.54861   0.58418  -0.18066
C          C       0.88979   0.58149   0.60779   0.07096
C          C       0.98692   0.72011   0.62761   0.07326
C          C       0.09831   0.69155   0.60549  -0.18244
C          C       0.50120   0.73410   0.60144   0.03868
C          C       0.40313   0.77518   0.57265  -0.18961
C          C       0.40622   0.86958   0.56249   0.13355
C          C       0.51740   0.91669   0.57697  -0.17704
C          C       0.61447   0.86999   0.60369   0.08122
C          C       0.29001   0.91713   0.54182  -0.07476
C          C       0.26529   0.91826   0.48758   0.15001
C          C       0.33735   0.86885   0.44994  -0.17573
C          C       0.27624   0.87903   0.40216  -0.19528
C          C       0.16740   0.93750   0.40970   0.18285
C          C       0.07765   0.96311   0.36971  -0.13422
C          C       0.95975   0.00722   0.37884   0.17630
C          C       0.87052   0.03759   0.33872  -0.21472
C          C       0.76871   0.07455   0.36357  -0.19904
C          C       0.20846   0.94720   0.58111   0.14453
C          C       0.10568   0.93636   0.31567   0.12639
C          C       0.22448   0.95328   0.29413  -0.18986
C          C       0.25052   0.92380   0.24406   0.07235
C          C       0.05133   0.86288   0.23240   0.07030
C          C       0.01806   0.88976   0.28227  -0.19510
C          C       0.99055   0.04968   0.11733   0.18487
C          C       0.91850   0.02635   0.16265  -0.20208
C          C       0.81182   0.98090   0.14519  -0.19445
C          C       0.81806   0.97388   0.08925   0.14159
C          C       0.72822   0.92967   0.05673  -0.08440
C          C       0.73768   0.90915   0.00310   0.13791
C          C       0.65435   0.84934   0.97391  -0.19349
C          C       0.70381   0.83905   0.92501  -0.20398
C          C       0.81693   0.89383   0.92381   0.18233
C          C       0.10776   0.09771   0.11906  -0.14839
C          C       0.14579   0.13805   0.16978   0.13181
C          C       0.26661   0.12667   0.19380  -0.18929
C          C       0.29096   0.15780   0.24447   0.06435
C          C       0.09079   0.21754   0.24970   0.05535
C          C       0.05872   0.18820   0.19950  -0.18487
C          C       0.61331   0.89427   0.08203   0.13577
C          C       0.50359   0.94766   0.08379  -0.18030
C          C       0.39780   0.91240   0.10762   0.08118
C          C       0.50008   0.77469   0.12587   0.06562
C          C       0.61002   0.80575   0.10348  -0.18853
C          C       0.02769   0.77719   0.08718   0.08221
C          C       0.92416   0.73888   0.06034  -0.17752
C          C       0.90506   0.64359   0.06135   0.12469
C          C       0.00215   0.58995   0.08437  -0.18025
C          C       0.10525   0.63299   0.10875   0.06211
C          C       0.78383   0.60202   0.04175  -0.07758
C          C       0.75877   0.60118   0.98745   0.14799
C          C       0.84156   0.63706   0.94879  -0.17170
C          C       0.78354   0.62310   0.90060  -0.19521
C          C       0.66499   0.57671   0.90931   0.17947
C          C       0.57560   0.54931   0.86980  -0.13516
C          C       0.45848   0.50470   0.87944   0.17903
C          C       0.38095   0.45934   0.83992  -0.21507
C          C       0.27657   0.42521   0.86421  -0.20015
C          C       0.70446   0.56834   0.08109   0.14624
C          C       0.60240   0.56773   0.81463   0.12631
C          C       0.71789   0.54531   0.79176  -0.19279
C          C       0.73806   0.56770   0.73993   0.07617
C          C       0.53862   0.62889   0.72932   0.06620
C          C       0.51085   0.60910   0.78079  -0.19251
C          C       0.50947   0.54969   0.38266   0.18472
C          C       0.58152   0.52636   0.33734  -0.20206
C          C       0.68821   0.48092   0.35480  -0.19450
C          C       0.68195   0.47389   0.41075   0.14168
C          C       0.77176   0.42966   0.44327  -0.08431
C          C       0.76229   0.40915   0.49690   0.13760
C          C       0.84563   0.34934   0.52609  -0.19327
C          C       0.79618   0.33905   0.57500  -0.20403
C          C       0.68305   0.39382   0.57619   0.18255
C          C       0.39226   0.59772   0.38093  -0.14810
C          C       0.35422   0.63805   0.33022   0.13164
C          C       0.23340   0.62668   0.30619  -0.18922
C          C       0.20907   0.65780   0.25552   0.06441
C          C       0.40923   0.71754   0.25030   0.05557
C          C       0.44128   0.68821   0.30050  -0.18483
C          C       0.88669   0.39427   0.41798   0.13559
C          C       0.99640   0.44766   0.41621  -0.18009
C          C       0.10218   0.41240   0.39238   0.08108
C          C      -0.00008   0.27469   0.37413   0.06572
C          C       0.88998   0.30574   0.39654  -0.18864
C          C       0.47232   0.27717   0.41282   0.08201
C          C       0.57584   0.23886   0.43965  -0.17762
C          C       0.59494   0.14357   0.43865   0.12476
C          C       0.49785   0.08995   0.41563  -0.18044
C          C       0.39475   0.13299   0.39125   0.06235
C          C       0.71618   0.10202   0.45825  -0.07778
C          C       0.74123   0.10117   0.51255   0.14789
C          C       0.65844   0.13705   0.55122  -0.17181
C          C       0.71645   0.12310   0.59940  -0.19521
C          C       0.83501   0.07672   0.59069   0.17975
C          C       0.92440   0.04932   0.63021  -0.13560
C          C       0.04151   0.00472   0.62056   0.17919
C          C       0.11904   0.95936   0.66009  -0.21452
C          C       0.22343   0.92523   0.63580  -0.19998
C          C       0.79552   0.06832   0.41890   0.14644
C          C       0.89757   0.06773   0.68538   0.12670
C          C       0.78208   0.04531   0.70825  -0.19310
C          C       0.76191   0.06767   0.76009   0.07575
C          C       0.96133   0.12888   0.77070   0.06713
C          C       0.98911   0.10911   0.71922  -0.19297
N          N       0.07429   0.98728   0.92597  -0.34682
N          N       0.16457   0.06972   0.02662  -0.35072
N          N       0.78759   0.78432   0.73056  -0.23455
N          N       0.61685   0.16618   0.87045  -0.21407
N          N       0.89480   0.28068   0.88155  -0.21919
N          N       0.33326   0.37792   0.28745  -0.24221
N          N       0.40349   0.49514   0.92725  -0.32667
N          N       0.33789   0.45959   0.03792  -0.33854
N          N       0.42569   0.48727   0.57404  -0.34704
N          N       0.33543   0.56970   0.47337  -0.35086
N          N       0.71237   0.28432   0.76944  -0.23458
N          N       0.88316   0.66618   0.62955  -0.21380
N          N       0.60518   0.78068   0.61847  -0.21936
N          N       0.16676   0.87794   0.21254  -0.24227
N          N       0.09653   0.99517   0.57276  -0.32706
N          N       0.16209   0.95957   0.46208  -0.33867
N          N       0.92933   0.01457   0.07330  -0.33735
N          N       0.83649   0.93528   0.97191  -0.34159
N          N       0.20496   0.20180   0.27357  -0.23299
N          N       0.39528   0.82736   0.12907  -0.21746
N          N       0.11568   0.72557   0.11317  -0.21558
N          N       0.65205   0.61115   0.70829  -0.25132
N          N       0.58649   0.52814   0.07262  -0.33661
N          N       0.65109   0.56511   0.96248  -0.34867
N          N       0.57069   0.51459   0.42669  -0.33749
N          N       0.66347   0.43527   0.52809  -0.34173
N          N       0.29506   0.70180   0.22643  -0.23329
N          N       0.10471   0.32736   0.37093  -0.21743
N          N       0.38433   0.22556   0.38682  -0.21560
N          N       0.84791   0.11112   0.79173  -0.25122
N          N       0.91351   0.02814   0.42738  -0.33662
N          N       0.84892   0.06513   0.53753  -0.34884

