data_crystal

_audit_creation_method 'AiiDA-DDEC plugin'

_cell_length_a        12.04108
_cell_length_b        19.29743
_cell_length_c        19.29261

_cell_angle_alpha     120.34098
_cell_angle_beta     89.99683
_cell_angle_gamma     89.98507

_symmetry_space_group_name_Hall 'P 1'
_symmetry_space_group_name_H-M  'P 1'

loop_
_symmetry_equiv_pos_as_xyz
 'x,y,z'

loop_
_atom_site_label
_atom_site_type_symbol
_atom_site_fract_x
_atom_site_fract_y
_atom_site_fract_z
_atom_site_charge
U          U       0.15450   0.49600   0.16745   1.53339
U          U       0.82679   0.31429   0.82977   1.62988
U          U       0.53238   0.16785   0.99344   1.87149
U          U       0.82102   0.33004   0.32416   1.54649
U          U       0.48719   0.67176   0.50342   1.53399
U          U       0.15758   0.51564   0.68627   1.61773
U          U       0.86570   0.82587   0.83223   1.87665
U          U       0.15884   0.99359   0.66980   1.57540
U          U       0.82196   0.83271   0.32855   1.54045
U          U       0.49206   0.16973   0.48509   1.57947
U          U       0.20039   0.00488   0.17456   1.88870
U          U       0.48375   0.67718   0.00682   1.54014
H          H       0.85892   0.63327   0.39010   0.12473
H          H       0.76710   0.66419   0.33891   0.07188
H          H       0.70312   0.52363   0.24979   0.13659
H          H       0.84870   0.53172   0.23982   0.11568
H          H       0.87221   0.62616   0.08134   0.13465
H          H       0.81598   0.63425   0.16982   0.02369
H          H       0.71193   0.50926   0.09553   0.13372
H          H       0.68722   0.56515   0.04877   0.11193
H          H       0.87223   0.24469   0.51745   0.14696
H          H       0.84151   0.29446   0.62131   0.10911
H          H       0.74456   0.40429   0.59567   0.14220
H          H       0.89206   0.40356   0.59739   0.12322
H          H       0.60838   0.07722   0.69064   0.12000
H          H       0.54391   0.13084   0.64869   0.09591
H          H       0.41007   0.10384   0.72651   0.05363
H          H       0.43175   0.20976   0.77486   0.13925
H          H       0.90285   0.13336   0.03535   0.14115
H          H       0.86775   0.03081   0.98808   0.12294
H          H       0.79371   0.05353   0.12308   0.13554
H          H       0.93756   0.07001   0.12354   0.11519
H          H       0.29448   0.29267   0.21953   0.14564
H          H       0.25194   0.19032   0.17190   0.10938
H          H       0.12454   0.21850   0.07985   0.13872
H          H       0.08563   0.26399   0.18293   0.10421
H          H       0.80318   0.52761   0.41807   0.40670
H          H       0.91698   0.43887   0.05460   0.38472
H          H       0.66539   0.16121   0.84297   0.31487
H          H       0.73196   0.17829   0.64111   0.39790
H          H       0.19256   0.75636   0.36689   0.12348
H          H       0.10000   0.67421   0.33522   0.06650
H          H       0.03649   0.72599   0.47556   0.13408
H          H       0.18179   0.70752   0.46713   0.11082
H          H       0.20537   0.45416   0.37279   0.13405
H          H       0.15000   0.53569   0.36667   0.02638
H          H       0.04636   0.58669   0.49140   0.13424
H          H       0.02138   0.48354   0.43497   0.10740
H          H       0.20514   0.27312   0.75551   0.14835
H          H       0.17479   0.32764   0.70665   0.11137
H          H       0.07857   0.19073   0.59579   0.14200
H          H       0.22594   0.19377   0.59666   0.12083
H          H       0.94170   0.61371   0.92262   0.12006
H          H       0.87862   0.51720   0.86679   0.09901
H          H       0.74389   0.62357   0.89645   0.06168
H          H       0.76453   0.56424   0.79037   0.14085
H          H       0.23596   0.90131   0.86612   0.14036
H          H       0.20072   0.95792   0.96846   0.12449
H          H       0.12710   0.06997   0.94637   0.13642
H          H       0.27063   0.05380   0.92986   0.11411
H          H       0.62733   0.92667   0.70784   0.14551
H          H       0.58564   0.98297   0.81048   0.10691
H          H       0.45692   0.86228   0.78178   0.13821
H          H       0.41867   0.92005   0.73724   0.10189
H          H       0.13874   0.89128   0.47324   0.40493
H          H       0.25184   0.61587   0.56052   0.38934
H          H      -0.00081   0.67992   0.84167   0.30388
H          H       0.06404   0.46309   0.81997   0.39359
H          H       0.52568   0.61003   0.24308   0.12421
H          H       0.43335   0.66177   0.32552   0.06725
H          H       0.37022   0.74976   0.27326   0.13665
H          H       0.51501   0.76089   0.29389   0.11672
H          H       0.53942   0.91869   0.54510   0.13288
H          H       0.48333   0.83025   0.46377   0.02344
H          H       0.37983   0.90398   0.41345   0.13397
H          H       0.35493   0.95165   0.51658   0.10852
H          H       0.53860   0.48224   0.72695   0.14877
H          H       0.50744   0.37827   0.67178   0.10940
H          H       0.41152   0.40489   0.80845   0.14126
H          H       0.55913   0.40301   0.80533   0.11974
H          H       0.27492   0.30870   0.38660   0.12007
H          H       0.21014   0.35196   0.48274   0.09742
H          H       0.07642   0.27348   0.37712   0.05163
H          H       0.09758   0.22639   0.43542   0.13898
H          H       0.56968   0.96509   0.09831   0.14088
H          H       0.53478   0.01081   0.04247   0.12451
H          H       0.46042   0.87650   0.92998   0.13725
H          H       0.60351   0.87456   0.94638   0.11513
H          H       0.96097   0.78051   0.07264   0.14472
H          H       0.91869   0.82763   0.01778   0.10840
H          H       0.79050   0.92011   0.13922   0.13884
H          H       0.75270   0.81690   0.08067   0.10310
H          H       0.47044   0.58202   0.10989   0.40590
H          H       0.58534   0.94459   0.38431   0.38779
H          H       0.33269   0.15890   0.31902   0.31077
H          H       0.39957   0.35875   0.53706   0.39370
C          C       0.68659   0.62903   0.41471   0.56212
C          C       0.77974   0.61849   0.35699  -0.26725
C          C       0.78294   0.53535   0.28174  -0.27516
C          C       0.79971   0.46764   0.29648   0.48448
C          C       0.95069   0.55362   0.11837   0.48508
C          C       0.84831   0.58958   0.10781  -0.24499
C          C       0.75313   0.53246   0.06041  -0.27853
C          C       0.78154   0.45901   0.98044   0.59054
C          C       0.70225   0.24923   0.54592   0.61935
C          C       0.81503   0.28799   0.56381  -0.27976
C          C       0.81819   0.36772   0.56529  -0.26811
C          C       0.81976   0.35485   0.48140   0.61451
C          C       0.66230   0.19652   0.74576   0.33811
C          C       0.57244   0.13567   0.70582  -0.25181
C          C       0.47221   0.15264   0.76066  -0.23374
C          C       0.50032   0.15706   0.83722   0.45951
C          C       0.73177   0.11083   0.02176   0.63023
C          C       0.84567   0.09059   0.03847  -0.28512
C          C       0.85588   0.09242   0.11785  -0.26658
C          C       0.84185   0.17541   0.18965   0.60203
C          C       0.35243   0.21825   0.10110   0.61492
C          C       0.26269   0.24198   0.16339  -0.26690
C          C       0.15047   0.26206   0.14137  -0.27175
C          C       0.15326   0.34276   0.14799   0.61438
C          C       0.02048   0.78699   0.37205   0.56483
C          C       0.11294   0.73840   0.38143  -0.26623
C          C       0.11625   0.74635   0.46423  -0.27012
C          C       0.13222   0.82937   0.53225   0.46424
C          C       0.28584   0.56335   0.44578   0.48710
C          C       0.18228   0.51771   0.41048  -0.24584
C          C       0.08744   0.52799   0.46786  -0.27652
C          C       0.11535   0.52155   0.54108   0.59117
C          C       0.03466   0.29631   0.75036   0.61875
C          C       0.14815   0.27630   0.71247  -0.27958
C          C       0.15215   0.19726   0.63235  -0.26809
C          C       0.15453   0.12605   0.64480   0.61584
C          C       0.99625   0.55072   0.80305   0.30953
C          C       0.90631   0.57069   0.86383  -0.24656
C          C       0.80537   0.60801   0.84728  -0.23900
C          C       0.83427   0.67977   0.84235   0.46722
C          C       0.06461   0.91110   0.88890   0.62937
C          C       0.17865   0.94783   0.90869  -0.28461
C          C       0.18900   0.02536   0.90713  -0.26603
C          C       0.17355   0.01353   0.82429   0.60151
C          C       0.68639   0.88333   0.78186   0.61776
C          C       0.59619   0.92219   0.75891  -0.26907
C          C       0.48360   0.88020   0.73872  -0.27093
C          C       0.48713   0.80546   0.65808   0.61390
C          C       0.35370   0.58500   0.21292   0.56176
C          C       0.44650   0.64328   0.26139  -0.26509
C          C       0.45061   0.71840   0.25405  -0.27581
C          C       0.47050   0.70340   0.17172   0.47913
C          C       0.61872   0.88156   0.43549   0.48564
C          C       0.51567   0.89225   0.48168  -0.24499
C          C       0.42097   0.93964   0.47209  -0.27736
C          C       0.44922   0.01910   0.47836   0.58971
C          C       0.36794   0.45418   0.70377   0.62101
C          C       0.48134   0.43595   0.72343  -0.28031
C          C       0.48506   0.43491   0.80195  -0.26815
C          C       0.48730   0.51890   0.87368   0.61569
C          C       0.32856   0.25438   0.45103   0.33588
C          C       0.23874   0.29442   0.43025  -0.25138
C          C       0.13848   0.23968   0.39212  -0.23584
C          C       0.16810   0.16251   0.32034   0.46622
C          C       0.39791   0.97798   0.08898   0.63094
C          C       0.51195   0.96116   0.05228  -0.28426
C          C       0.52164   0.88130   0.97455  -0.26792
C          C       0.50481   0.81018   0.98576   0.60365
C          C       0.01976   0.89837   0.11695   0.61524
C          C       0.92943   0.83650   0.07824  -0.26679
C          C       0.81718   0.85880   0.12083  -0.27171
C          C       0.81970   0.85226   0.19489   0.61492
O          O       0.61062   0.57501   0.39284  -0.59305
O          O       0.68422   0.69216   0.48409  -0.55895
O          O       0.80877   0.39427   0.24200  -0.55720
O          O       0.83922   0.48199   0.37216  -0.56696
O          O       0.03529   0.59367   0.15921  -0.57418
O          O       0.94769   0.47589   0.10802  -0.54385
O          O       0.88261   0.44304   0.95417  -0.62028
O          O       0.70392   0.41045   0.94031  -0.57942
O          O       0.68778   0.18441   0.54816  -0.61979
O          O       0.62045   0.28115   0.52956  -0.59093
O          O       0.82229   0.28344   0.42083  -0.58438
O          O       0.82070   0.41576   0.47118  -0.62438
O          O       0.64499   0.26951   0.80864  -0.63352
O          O       0.75255   0.19374   0.69708  -0.58547
O          O       0.43702   0.18770   0.90048  -0.63527
O          O       0.60423   0.13140   0.85072  -0.58109
O          O       0.72344   0.13390   0.97004  -0.64796
O          O       0.64498   0.10516   0.05674  -0.61303
O          O       0.82686   0.23600   0.18008  -0.59047
O          O       0.84665   0.18519   0.26031  -0.57822
O          O       0.45513   0.22260   0.12352  -0.63463
O          O       0.32868   0.19046   0.02738  -0.58965
O          O       0.22863   0.39324   0.19187  -0.57498
O          O       0.08175   0.36111   0.11042  -0.60169
O          O       0.94379   0.81893   0.42538  -0.59128
O          O       0.02010   0.79455   0.30999  -0.56563
O          O       0.14303   0.84875   0.60577  -0.57202
O          O       0.17454   0.89049   0.51855  -0.57187
O          O       0.37042   0.56253   0.40507  -0.56916
O          O       0.28529   0.63102   0.52384  -0.54474
O          O       0.21605   0.51176   0.55761  -0.61713
O          O       0.03690   0.52952   0.58883  -0.58311
O          O       0.01685   0.36350   0.81542  -0.62279
O          O       0.95431   0.24668   0.71756  -0.59061
O          O       0.15658   0.13777   0.71627  -0.59071
O          O       0.15701   0.05423   0.58397  -0.62628
O          O       0.97353   0.53332   0.72841  -0.61807
O          O       0.08695   0.50493   0.80716  -0.58692
O          O       0.77101   0.71305   0.81288  -0.63355
O          O       0.93818   0.71901   0.86836  -0.57837
O          O       0.05641   0.83601   0.86571  -0.64881
O          O       0.97769   0.95193   0.89528  -0.60965
O          O       0.15362   0.94362   0.76382  -0.58693
O          O       0.18257   0.07445   0.81494  -0.58436
O          O       0.78923   0.90099   0.77748  -0.63226
O          O       0.66213   0.83722   0.80901  -0.59328
O          O       0.56479   0.79715   0.60871  -0.57244
O          O       0.41434   0.74981   0.63805  -0.60406
O          O       0.27787   0.60577   0.18006  -0.59236
O          O       0.35164   0.51592   0.20667  -0.56135
O          O       0.48203   0.75730   0.15276  -0.56517
O          O       0.50654   0.62735   0.10927  -0.55881
O          O       0.70288   0.84068   0.43483  -0.57267
O          O       0.61814   0.89225   0.36843  -0.54438
O          O       0.54978   0.04589   0.48923  -0.61535
O          O       0.37117   0.05804   0.46900  -0.57840
O          O       0.35096   0.45227   0.63702  -0.62216
O          O       0.28698   0.47098   0.75291  -0.59347
O          O       0.49404   0.57909   0.86303  -0.58675
O          O       0.48434   0.52969   0.94506  -0.62361
O          O       0.31035   0.19450   0.46489  -0.63192
O          O       0.41997   0.30293   0.49563  -0.58027
O          O       0.10406   0.09997   0.28542  -0.63606
O          O       0.27158   0.14928   0.28065  -0.57739
O          O       0.38976   0.02855   0.16471  -0.64964
O          O       0.31077   0.94443   0.04761  -0.61150
O          O       0.48186   0.82083   0.05569  -0.59323
O          O       0.51596   0.73946   0.92498  -0.57729
O          O       0.12230   0.87551   0.09829  -0.63846
O          O       0.99624   0.97205   0.16359  -0.58896
O          O       0.89515   0.80842   0.20099  -0.57736
O          O       0.74803   0.88950   0.25117  -0.60094

