data_crystal

_audit_creation_method 'AiiDA-DDEC plugin'

_cell_length_a        15.80585
_cell_length_b        18.36692
_cell_length_c        23.51582

_cell_angle_alpha     90.02755
_cell_angle_beta     89.97428
_cell_angle_gamma     104.92425

_symmetry_space_group_name_Hall 'P 1'
_symmetry_space_group_name_H-M  'P 1'

loop_
_symmetry_equiv_pos_as_xyz
 'x,y,z'

loop_
_atom_site_label
_atom_site_type_symbol
_atom_site_fract_x
_atom_site_fract_y
_atom_site_fract_z
_atom_site_charge
In         In      0.68950   0.14001   0.48458   1.50063
In         In      0.81545   0.34453   0.47051   1.53879
In         In      0.30999   0.35929   0.98467   1.49985
In         In      0.18496   0.15472   0.96935   1.54416
In         In      0.31050   0.85999   0.51542   1.50039
In         In      0.18456   0.65547   0.52950   1.53885
In         In      0.69001   0.64071   0.01533   1.50015
In         In      0.81505   0.84528   0.03065   1.54412
In         In      0.50000  -0.00000   0.50000   1.52918
In         In      0.50000   0.50000   0.00000   1.53969
In         In      0.00000   0.50000   0.50000   1.55142
In         In      0.00000   0.00000   0.00000   1.55055
H          H       0.52573   0.13641   0.45728   0.41253
H          H       0.73500   0.25398   0.55471   0.41195
H          H       0.87614   0.46500   0.41657   0.37442
H          H       0.64653   0.89932   0.36859   0.14465
H          H       0.82585   0.95585   0.42635   0.11270
H          H       0.81746   0.92920   0.23425   0.14782
H          H       0.70611   0.88843   0.24808   0.13419
H          H       0.76639   0.96121   0.29301   0.13188
H          H       0.92704   0.66310   0.29809   0.14491
H          H       0.81568   0.61407   0.29962   0.13877
H          H       0.85915   0.66830   0.23876   0.13505
H          H       0.78370   0.83201   0.47852   0.13527
H          H       0.85338   0.77000   0.48300   0.14246
H          H       0.89852   0.86795   0.47398   0.13556
H          H       0.83608   0.82667   0.19156   0.11642
H          H       0.70252   0.67472   0.21282   0.14044
H          H       0.87555   0.63683   0.39502   0.12237
H          H       0.00158   0.78248   0.43972   0.13803
H          H       0.79089   0.54214   0.63380   0.14006
H          H       0.65265   0.40445   0.58932   0.11438
H          H       0.44635   0.46313   0.56239   0.13453
H          H       0.55502   0.51779   0.55023   0.14162
H          H       0.53388   0.41918   0.55556   0.13974
H          H       0.42054   0.48871   0.81655   0.13704
H          H       0.41491   0.56510   0.77248   0.14104
H          H       0.34668   0.47499   0.75830   0.13116
H          H       0.70832   0.44321   0.78266   0.13251
H          H       0.74295   0.42994   0.71210   0.13832
H          H       0.76692   0.52078   0.74213   0.13489
H          H       0.32165   0.46184   0.66932   0.09934
H          H       0.43133   0.59625   0.60217   0.13434
H          H       0.52636   0.46290   0.84300   0.10670
H          H       0.70159   0.57832   0.82036   0.14433
H          H       0.47404   0.36424   0.95731   0.41303
H          H       0.26404   0.24478   0.05462   0.41109
H          H       0.12385   0.03297   0.91673   0.37484
H          H       0.35163   0.59909   0.86897   0.14452
H          H       0.17215   0.54326   0.92661   0.11252
H          H       0.18092   0.57006   0.73465   0.14769
H          H       0.29218   0.61076   0.74804   0.13390
H          H       0.23243   0.53805   0.79318   0.13160
H          H       0.07183   0.83649   0.79939   0.14395
H          H       0.18367   0.88475   0.79923   0.13947
H          H       0.13775   0.82946   0.73937   0.13496
H          H       0.21543   0.66676   0.97891   0.13566
H          H       0.14600   0.72896   0.98383   0.14284
H          H       0.10055   0.63114   0.97459   0.13510
H          H       0.16122   0.67172   0.69228   0.11658
H          H       0.29239   0.82504   0.71295   0.13934
H          H       0.12189   0.86193   0.89534   0.12223
H          H       0.99733   0.71656   0.94176   0.13463
H          H       0.20793   0.95746   0.13398   0.14028
H          H       0.34584   0.09470   0.08881   0.11369
H          H       0.55294   0.03863   0.06236   0.13491
H          H       0.44485   0.98302   0.04998   0.14076
H          H       0.46449   0.08148   0.05556   0.13991
H          H       0.57908   0.01344   0.31631   0.13742
H          H       0.58527   0.93697   0.27251   0.14170
H          H       0.65271   0.02732   0.25793   0.13206
H          H       0.28967   0.05629   0.28247   0.13242
H          H       0.25473   0.06881   0.21185   0.13793
H          H       0.23210   0.97812   0.24208   0.13446
H          H       0.67721   0.03934   0.16906   0.09981
H          H       0.56739   0.90459   0.10224   0.13419
H          H       0.47321   0.03751   0.34283   0.10594
H          H       0.29726   0.92322   0.32023   0.14435
H          H       0.47428   0.86359   0.54272   0.41289
H          H       0.26500   0.74602   0.44529   0.41176
H          H       0.12387   0.53500   0.58344   0.37508
H          H       0.35348   0.10068   0.63141   0.14478
H          H       0.17416   0.04415   0.57365   0.11251
H          H       0.18255   0.07080   0.76575   0.14769
H          H       0.29390   0.11157   0.75192   0.13438
H          H       0.23362   0.03879   0.70700   0.13181
H          H       0.07297   0.33690   0.70192   0.14454
H          H       0.18433   0.38593   0.70038   0.13876
H          H       0.14086   0.33170   0.76124   0.13518
H          H       0.21631   0.16799   0.52148   0.13543
H          H       0.14663   0.23000   0.51700   0.14228
H          H       0.10149   0.13205   0.52602   0.13538
H          H       0.16393   0.17333   0.80844   0.11642
H          H       0.29749   0.32528   0.78718   0.14052
H          H       0.12445   0.36317   0.60498   0.12245
H          H      -0.00157   0.21752   0.56029   0.13465
H          H       0.20912   0.45786   0.36620   0.13992
H          H       0.34736   0.59554   0.41068   0.11451
H          H       0.55366   0.53687   0.43762   0.13492
H          H       0.44498   0.48221   0.44977   0.14159
H          H       0.46613   0.58082   0.44444   0.13964
H          H       0.57947   0.51129   0.18346   0.13690
H          H       0.58510   0.43490   0.22753   0.14114
H          H       0.65333   0.52501   0.24170   0.13142
H          H       0.29169   0.55679   0.21734   0.13240
H          H       0.25706   0.57006   0.28790   0.13822
H          H       0.23309   0.47922   0.25787   0.13483
H          H       0.67836   0.53816   0.33068   0.09944
H          H       0.56868   0.40375   0.39784   0.13427
H          H       0.47365   0.53710   0.15700   0.10675
H          H       0.29842   0.42168   0.17964   0.14422
H          H       0.52597   0.63576   0.04269   0.41304
H          H       0.73597   0.75522   0.94538   0.41092
H          H       0.87616   0.96703   0.08327   0.37452
H          H       0.64837   0.40091   0.13104   0.14444
H          H       0.82786   0.45674   0.07339   0.11254
H          H       0.81908   0.42994   0.26535   0.14804
H          H       0.70782   0.38924   0.25196   0.13374
H          H       0.76757   0.46195   0.20683   0.13145
H          H       0.92817   0.16351   0.20061   0.14416
H          H       0.81634   0.11525   0.20078   0.13931
H          H       0.86226   0.17054   0.26063   0.13516
H          H       0.78458   0.33324   0.02109   0.13534
H          H       0.85401   0.27104   0.01618   0.14290
H          H       0.89946   0.36886   0.02542   0.13527
H          H       0.83878   0.32828   0.30772   0.11674
H          H       0.70762   0.17496   0.28705   0.13906
H          H       0.87811   0.13807   0.10466   0.12219
H          H       0.00268   0.28344   0.05825   0.13461
H          H       0.79208   0.04254   0.86602   0.14023
H          H       0.65417   0.90530   0.91119   0.11376
H          H       0.44706   0.96137   0.93764   0.13471
H          H       0.55515   0.01698   0.95002   0.14098
H          H       0.53552   0.91852   0.94445   0.14016
H          H       0.42093   0.98656   0.68369   0.13716
H          H       0.41473   0.06303   0.72749   0.14162
H          H       0.34730   0.97268   0.74207   0.13186
H          H       0.71033   0.94371   0.71753   0.13227
H          H       0.74528   0.93119   0.78816   0.13824
H          H       0.76791   0.02188   0.75793   0.13460
H          H       0.32280   0.96065   0.83094   0.09966
H          H       0.43261   0.09541   0.89776   0.13446
H          H       0.52679   0.96249   0.65718   0.10578
H          H       0.70275   0.07678   0.67977   0.14458
C          C       0.67109   0.99068   0.42951   0.63884
C          C       0.69822   0.93429   0.39457  -0.25730
C          C       0.77866   0.92197   0.39668  -0.00380
C          C       0.80413   0.86146   0.36542  -0.04885
C          C       0.79471   0.85309   0.30598   0.09335
C          C       0.81007   0.78808   0.27985  -0.04158
C          C       0.84003   0.73473   0.31187   0.09542
C          C       0.85764   0.74834   0.37061  -0.03629
C          C       0.83733   0.81002   0.39796   0.09081
C          C       0.76974   0.91115   0.26887  -0.42709
C          C       0.86148   0.66679   0.28519  -0.42440
C          C       0.84364   0.82018   0.46173  -0.42204
C          C       0.79890   0.78033   0.21790  -0.00530
C          C       0.74661   0.72118   0.19047  -0.26036
C          C       0.74658   0.71706   0.12793   0.63947
C          C       0.90030   0.69758   0.40098  -0.03289
C          C       0.97197   0.72265   0.43360  -0.25232
C          C       0.01723   0.67179   0.46206   0.64653
C          C       0.81790   0.46518   0.56896   0.64060
C          C       0.76105   0.49058   0.61075  -0.24350
C          C       0.67646   0.45282   0.61738  -0.04177
C          C       0.61277   0.46979   0.65772  -0.03612
C          C       0.53089   0.47542   0.63605   0.09258
C          C       0.46638   0.48760   0.67375  -0.03131
C          C       0.48188   0.49030   0.73301   0.08937
C          C       0.56468   0.48695   0.75409  -0.04504
C          C       0.63101   0.47671   0.71659   0.09297
C          C       0.51505   0.46838   0.57286  -0.42548
C          C       0.41268   0.50469   0.77240  -0.42436
C          C       0.71658   0.46690   0.73967  -0.42100
C          C       0.38231   0.49933   0.65338  -0.04699
C          C       0.37415   0.55520   0.61857  -0.24004
C          C       0.28763   0.56625   0.60086   0.60795
C          C       0.57879   0.49455   0.81564  -0.00821
C          C       0.64782   0.54023   0.84270  -0.26681
C          C       0.64742   0.54763   0.90486   0.65254
C          C       0.32632   0.50789   0.92995   0.63931
C          C       0.29966   0.56428   0.89482  -0.25704
C          C       0.21951   0.57707   0.89700  -0.00425
C          C       0.19469   0.63786   0.86586  -0.04822
C          C       0.20398   0.64616   0.80641   0.09376
C          C       0.18820   0.71099   0.78036  -0.04297
C          C       0.15833   0.76428   0.81256   0.09609
C          C       0.14077   0.75067   0.87132  -0.03510
C          C       0.16144   0.68913   0.89857   0.08997
C          C       0.22880   0.58809   0.76916  -0.42687
C          C       0.13680   0.83205   0.78580  -0.42469
C          C       0.15551   0.67882   0.96233  -0.42158
C          C       0.19833   0.71843   0.71833  -0.00570
C          C       0.24922   0.77801   0.69057  -0.25935
C          C       0.24927   0.78165   0.62797   0.64156
C          C       0.09787   0.80119   0.90177  -0.03314
C          C       0.02681   0.77631   0.93500  -0.24982
C          C       0.98240   0.82800   0.96336   0.64667
C          C       0.18108   0.03328   0.06819   0.64225
C          C       0.23770   0.00865   0.11051  -0.24603
C          C       0.32216   0.04671   0.11719  -0.03902
C          C       0.38592   0.03038   0.15767  -0.03637
C          C       0.46799   0.02525   0.13597   0.09375
C          C       0.53256   0.01347   0.17369  -0.03266
C          C       0.51724   0.01098   0.23295   0.09060
C          C       0.43430   0.01397   0.25409  -0.04623
C          C       0.36773   0.02352   0.21655   0.09311
C          C       0.48405   0.03262   0.07279  -0.42462
C          C       0.58692   0.99727   0.27221  -0.42606
C          C       0.28172   0.03242   0.23953  -0.42023
C          C       0.61654   0.00179   0.15324  -0.04584
C          C       0.62459   0.94582   0.11845  -0.24099
C          C       0.71131   0.93515   0.10083   0.60884
C          C       0.42034   0.00630   0.31562  -0.00539
C          C       0.35122   0.96078   0.34274  -0.26939
C          C       0.35199   0.95260   0.40484   0.65445
C          C       0.32892   0.00932   0.57049   0.63848
C          C       0.30179   0.06571   0.60543  -0.25700
C          C       0.22135   0.07802   0.60332  -0.00394
C          C       0.19588   0.13854   0.63459  -0.04890
C          C       0.20530   0.14691   0.69402   0.09319
C          C       0.18994   0.21192   0.72015  -0.04140
C          C       0.15998   0.26527   0.68813   0.09529
C          C       0.14236   0.25166   0.62939  -0.03629
C          C       0.16268   0.18998   0.60204   0.09107
C          C       0.23026   0.08885   0.73113  -0.42662
C          C       0.13853   0.33321   0.71481  -0.42422
C          C       0.15637   0.17982   0.53827  -0.42200
C          C       0.20110   0.21967   0.78210  -0.00537
C          C       0.25339   0.27882   0.80953  -0.26041
C          C       0.25343   0.28294   0.87208   0.63957
C          C       0.09970   0.30242   0.59902  -0.03254
C          C       0.02804   0.27735   0.56640  -0.24988
C          C       0.98278   0.32821   0.53795   0.64679
C          C       0.18211   0.53482   0.43105   0.64061
C          C       0.23896   0.50942   0.38926  -0.24346
C          C       0.32355   0.54718   0.38263  -0.04174
C          C       0.38724   0.53021   0.34229  -0.03618
C          C       0.46912   0.52458   0.36395   0.09278
C          C       0.53362   0.51240   0.32625  -0.03147
C          C       0.51812   0.50970   0.26700   0.08942
C          C       0.43533   0.51304   0.24591  -0.04489
C          C       0.36900   0.52329   0.28341   0.09288
C          C       0.48495   0.53162   0.42714  -0.42555
C          C       0.58733   0.49531   0.22761  -0.42444
C          C       0.28343   0.53310   0.26033  -0.42115
C          C       0.61770   0.50067   0.34662  -0.04698
C          C       0.62586   0.44480   0.38144  -0.23999
C          C       0.71238   0.43375   0.39914   0.60763
C          C       0.42122   0.50545   0.18436  -0.00820
C          C       0.35218   0.45977   0.15731  -0.26684
C          C       0.35259   0.45237   0.09514   0.65255
C          C       0.67369   0.49211   0.07005   0.63941
C          C       0.70035   0.43572   0.10518  -0.25702
C          C       0.78050   0.42293   0.10301  -0.00420
C          C       0.80532   0.36214   0.13414  -0.04800
C          C       0.79602   0.35384   0.19359   0.09379
C          C       0.81181   0.28901   0.21964  -0.04338
C          C       0.84168   0.23572   0.18744   0.09637
C          C       0.85923   0.24933   0.12869  -0.03536
C          C       0.83857   0.31087   0.10143   0.08989
C          C       0.77121   0.41191   0.23084  -0.42696
C          C       0.86321   0.16795   0.21421  -0.42457
C          C       0.84450   0.32118   0.03767  -0.42176
C          C       0.80168   0.28157   0.28168  -0.00545
C          C       0.75078   0.22198   0.30943  -0.25943
C          C       0.75074   0.21835   0.37204   0.64149
C          C       0.90213   0.19881   0.09824  -0.03310
C          C       0.97320   0.22369   0.06501  -0.24966
C          C       0.01761   0.17200   0.03665   0.64652
C          C       0.81892   0.96672   0.93182   0.64187
C          C       0.76231   0.99135   0.88949  -0.24584
C          C       0.67785   0.95329   0.88281  -0.03914
C          C       0.61409   0.96962   0.84233  -0.03640
C          C       0.53202   0.97475   0.86403   0.09391
C          C       0.46745   0.98653   0.82631  -0.03291
C          C       0.48277   0.98901   0.76705   0.09057
C          C       0.56570   0.98603   0.74591  -0.04610
C          C       0.63228   0.97648   0.78346   0.09319
C          C       0.51595   0.96738   0.92721  -0.42473
C          C       0.41309   0.00273   0.72779  -0.42593
C          C       0.71829   0.96758   0.76048  -0.42028
C          C       0.38347  -0.00179   0.84676  -0.04592
C          C       0.37542   0.05418   0.88156  -0.24097
C          C       0.28869   0.06485   0.89918   0.60897
C          C       0.57966   0.99370   0.68438  -0.00566
C          C       0.64879   0.03922   0.65726  -0.26921
C          C       0.64802   0.04740   0.59517   0.65447
O          O       0.54970   0.11969   0.49161  -0.86440
O          O       0.72497   0.25063   0.51386  -0.86744
O          O       0.91276   0.43637   0.43722  -0.89128
O          O       0.72936   0.04046   0.45699  -0.57630
O          O       0.58871   0.98627   0.42978  -0.60992
O          O       0.68332   0.66564   0.10544  -0.58401
O          O       0.80845   0.75993   0.09989  -0.59506
O          O       0.98785   0.60094   0.45430  -0.58384
O          O       0.08393   0.70504   0.49194  -0.59612
O          O       0.79174   0.39685   0.55137  -0.61682
O          O       0.88810   0.51332   0.55437  -0.57541
O          O       0.21730   0.51969   0.61442  -0.54441
O          O       0.29526   0.62780   0.57113  -0.60916
O          O       0.59553   0.49574   0.93421  -0.61940
O          O       0.69953   0.60727   0.92593  -0.57419
O          O       0.45030   0.38104   0.99173  -0.86626
O          O       0.27486   0.24830   0.01384  -0.86726
O          O       0.08749   0.06218   0.93690  -0.89318
O          O       0.26762   0.45767   0.95685  -0.57646
O          O       0.40864   0.51254   0.93096  -0.61362
O          O       0.31261   0.83300   0.60542  -0.58773
O          O       0.18772   0.73816   0.60009  -0.59225
O          O       0.01167   0.89853   0.95433  -0.58359
O          O       0.91654   0.79608   0.99442  -0.59813
O          O       0.20802   0.10087   0.04926  -0.61961
O          O       0.11023   0.98522   0.05459  -0.57308
O          O       0.78123   0.98218   0.11430  -0.54497
O          O       0.70431   0.87331   0.07146  -0.61004
O          O       0.40446   0.00388   0.43432  -0.62031
O          O       0.29992   0.89298   0.42588  -0.57421
O          O       0.45031   0.88031   0.50840  -0.86443
O          O       0.27504   0.74937   0.48615  -0.86721
O          O       0.08725   0.56363   0.56278  -0.89202
O          O       0.27065   0.95954   0.54301  -0.57664
O          O       0.41130   0.01373   0.57022  -0.60931
O          O       0.31669   0.33436   0.89456  -0.58372
O          O       0.19156   0.24007   0.90011  -0.59542
O          O       0.01216   0.39905   0.54570  -0.58376
O          O       0.91608   0.29496   0.50806  -0.59625
O          O       0.20827   0.60315   0.44863  -0.61683
O          O       0.11191   0.48668   0.44563  -0.57557
O          O       0.78270   0.48031   0.38558  -0.54403
O          O       0.70475   0.37220   0.42887  -0.60912
O          O       0.40448   0.50426   0.06579  -0.61933
O          O       0.30048   0.39273   0.07408  -0.57446
O          O       0.54971   0.61896   0.00828  -0.86654
O          O       0.72515   0.75170   0.98617  -0.86739
O          O       0.91252   0.93782   0.06311  -0.89262
O          O       0.73239   0.54233   0.04316  -0.57627
O          O       0.59136   0.48746   0.06905  -0.61406
O          O       0.68740   0.16700   0.39459  -0.58803
O          O       0.81229   0.26184   0.39991  -0.59182
O          O       0.98834   0.10147   0.04568  -0.58350
O          O       0.08347   0.20392   0.00558  -0.59808
O          O       0.79199   0.89913   0.95074  -0.61960
O          O       0.88977   0.01478   0.94541  -0.57262
O          O       0.21877   0.01782   0.88570  -0.54537
O          O       0.29570   0.12669   0.92854  -0.60991
O          O       0.59555   0.99611   0.56568  -0.62047
O          O       0.70009   0.10702   0.57412  -0.57400

