data_crystal

_audit_creation_method 'AiiDA-DDEC plugin'

_cell_length_a        19.42956
_cell_length_b        19.42978
_cell_length_c        35.75889

_cell_angle_alpha     90.01001
_cell_angle_beta     90.00403
_cell_angle_gamma     119.95604

_symmetry_space_group_name_Hall 'P 1'
_symmetry_space_group_name_H-M  'P 1'

loop_
_symmetry_equiv_pos_as_xyz
 'x,y,z'

loop_
_atom_site_label
_atom_site_type_symbol
_atom_site_fract_x
_atom_site_fract_y
_atom_site_fract_z
_atom_site_charge
Zn         Zn      0.48258   0.96516   0.03512   0.81978
Zn         Zn      0.51744   0.03484   0.53511   0.81970
Zn         Zn      0.48256   0.51741   0.03510   0.81934
Zn         Zn      0.51743   0.48259   0.96489   0.81885
Zn         Zn      0.03485   0.51743   0.03511   0.81962
Zn         Zn      0.51744   0.48259   0.53513   0.81969
Zn         Zn      0.51742   0.03484   0.96489   0.81908
Zn         Zn      0.48258   0.51742   0.46489   0.81952
Zn         Zn      0.48256   0.96517   0.46489   0.81932
Zn         Zn      0.96518   0.48260   0.53512   0.81950
Zn         Zn      0.03482   0.51741   0.46489   0.81926
Zn         Zn      0.96515   0.48257   0.96488   0.81920
Cr         Cr      0.28054   0.56112   0.25002   1.45247
Cr         Cr      0.56128   0.28063   0.75004   1.45325
Cr         Cr      0.71938   0.28058   0.75002   1.45209
Cr         Cr      0.71943   0.43891   0.75001   1.45255
Cr         Cr      0.28053   0.71940   0.25001   1.45237
Cr         Cr      0.43871   0.71934   0.25001   1.45342
H          H       0.73423   0.61090   0.09072   0.14532
H          H       0.12337   0.38913   0.59072   0.14500
H          H       0.87665   0.61083   0.40931   0.14546
H          H       0.26579   0.38907   0.59073   0.14511
H          H       0.45710   0.14058   0.65519   0.13531
H          H       0.91846   0.35218   0.59021   0.11878
H          H       0.31659   0.85924   0.15524   0.13534
H          H       0.26571   0.87662   0.90928   0.14551
H          H       0.31982   0.46237   0.15595   0.13532
H          H       0.73439   0.12345   0.09076   0.14516
H          H       0.56612   0.64767   0.09022   0.12429
H          H       0.85919   0.31652   0.65517   0.13544
H          H       0.64678   0.56427   0.90881   0.12385
H          H       0.91822   0.56614   0.90979   0.12156
H          H       0.43560   0.08251   0.90885   0.11855
H          H       0.38910   0.26584   0.09071   0.14533
H          H       0.08266   0.64695   0.09123   0.11858
H          H       0.87666   0.61085   0.09071   0.14525
H          H       0.68016   0.53750   0.84412   0.13529
H          H       0.68334   0.14075   0.84485   0.13566
H          H       0.68002   0.14225   0.65602   0.13522
H          H       0.68362   0.54281   0.65529   0.13521
H          H       0.85928   0.54276   0.84478   0.13548
H          H       0.85751   0.53773   0.65597   0.13534
H          H       0.35302   0.91744   0.40879   0.11928
H          H       0.91743   0.56439   0.59129   0.12424
H          H       0.56426   0.91734   0.09122   0.12391
H          H       0.64801   0.56636   0.59030   0.12423
H          H       0.14261   0.46241   0.34411   0.13525
H          H       0.26574   0.87670   0.59075   0.14504
H          H       0.31651   0.45728   0.34482   0.13545
H          H       0.54256   0.68338   0.15522   0.13561
H          H       0.91732   0.35302   0.90880   0.12372
H          H       0.46203   0.14237   0.84417   0.13521
H          H       0.14073   0.45723   0.15524   0.13543
H          H       0.26571   0.38904   0.90923   0.14543
H          H       0.12331   0.38910   0.90925   0.14534
H          H       0.38914   0.12334   0.40928   0.14532
H          H       0.38915   0.12341   0.09072   0.14524
H          H       0.08172   0.43384   0.09020   0.11853
H          H       0.08252   0.43570   0.40876   0.12382
H          H       0.64700   0.08268   0.59122   0.12416
H          H       0.43377   0.35231   0.90981   0.12387
H          H       0.61086   0.87670   0.59071   0.14533
H          H       0.43384   0.08166   0.59016   0.11874
H          H       0.12340   0.73432   0.90925   0.14511
H          H       0.54279   0.85937   0.34482   0.13545
H          H       0.46263   0.32006   0.65599   0.13521
H          H       0.56417   0.64679   0.40880   0.12414
H          H       0.38911   0.26578   0.40927   0.14538
H          H       0.61091   0.73428   0.90926   0.14546
H          H       0.35217   0.43379   0.40981   0.12155
H          H       0.31988   0.85771   0.34404   0.13548
H          H       0.61090   0.73426   0.59073   0.14519
H          H       0.35312   0.43569   0.09121   0.12431
H          H       0.73423   0.61090   0.40928   0.14535
H          H       0.45732   0.31648   0.84488   0.13544
H          H       0.56617   0.91843   0.40982   0.12172
H          H       0.08141   0.64785   0.40981   0.11856
H          H       0.14235   0.68012   0.15599   0.13533
H          H       0.12344   0.73440   0.59077   0.14484
H          H       0.73430   0.12337   0.40925   0.14533
H          H       0.85766   0.31982   0.84406   0.13545
H          H       0.14075   0.68359   0.34490   0.13524
H          H       0.87669   0.26577   0.09073   0.14496
H          H       0.87660   0.26568   0.40927   0.14521
H          H       0.53785   0.85759   0.15595   0.13554
H          H       0.61083   0.87669   0.90932   0.14555
H          H       0.43596   0.35333   0.59129   0.12426
H          H       0.35213   0.91835   0.09023   0.11853
H          H       0.64779   0.08154   0.90982   0.11886
H          H       0.53757   0.68005   0.34410   0.13504
C          C       0.09520   0.60862   0.39377   0.09970
C          C       0.40823   0.16766   0.43113  -0.18758
C          C       0.48946   0.39339   0.60681   0.09268
C          C       0.60849   0.09518   0.89376   0.10012
C          C       0.16295   0.72374   0.96510   0.07911
C          C       0.57514   0.42964   0.66059   0.00141
C          C       0.49592   0.87113   0.14243  -0.14618
C          C       0.37219   0.49986   0.35794  -0.14590
C          C       0.50398   0.12882   0.85766  -0.14442
C          C       0.90399   0.51085   0.60678   0.09346
C          C       0.64534   0.10310   0.47974   0.54927
C          C       0.40821   0.24056   0.43114  -0.18808
C          C       0.51072   0.60671   0.39326   0.09331
C          C       0.45779   0.35469   0.47976   0.54916
C          C       0.64533   0.10310   0.02028   0.54894
C          C       0.62463   0.12872   0.64244  -0.14523
C          C       0.45778   0.35471   0.02026   0.54802
C          C       0.89694   0.54222   0.02026   0.54919
C          C       0.50008   0.87234   0.35793  -0.14535
C          C       0.43919   0.27627   0.46512   0.07939
C          C       0.54223   0.89695   0.52025   0.54954
C          C       0.39313   0.48917   0.10675   0.09324
C          C       0.42511   0.85451   0.16055   0.00129
C          C       0.89692   0.54222   0.47976   0.54915
C          C       0.54222   0.64531   0.97973   0.54830
C          C       0.87112   0.49588   0.64242  -0.14583
C          C       0.10309   0.45779   0.52025   0.54963
C          C       0.75945   0.16765   0.43112  -0.18802
C          C       0.56080   0.83710   0.53488   0.07926
C          C       0.48671   0.09526   0.60627   0.10018
C          C       0.62797   0.50023   0.64214  -0.14543
C          C       0.42501   0.57044   0.33948   0.00155
C          C       0.62472   0.49574   0.85766  -0.14529
C          C       0.48907   0.09592   0.89329   0.09680
C          C       0.10306   0.45778   0.97972   0.54857
C          C       0.72374   0.16295   0.03492   0.08010
C          C       0.83233   0.59177   0.06886  -0.18809
C          C       0.56079   0.83708   0.96514   0.07963
C          C       0.51081   0.90396   0.10678   0.09375
C          C       0.49999   0.62773   0.14207  -0.14529
C          C       0.62768   0.12767   0.85799  -0.14487
C          C       0.83237   0.24058   0.06887  -0.18728
C          C       0.51320   0.60848   0.10628   0.09534
C          C       0.59154   0.40455   0.80299   0.59353
C          C       0.90472   0.51329   0.89369   0.09812
C          C       0.35467   0.89690   0.52026   0.54933
C          C       0.49982   0.12760   0.64208  -0.14572
C          C       0.83706   0.27625   0.46510   0.07956
C          C       0.57057   0.42496   0.83954   0.00135
C          C       0.83231   0.24051   0.43113  -0.18768
C          C       0.16295   0.72375   0.53492   0.07997
C          C       0.87237   0.50012   0.85788  -0.14575
C          C       0.60685   0.09600   0.60677   0.09344
C          C       0.48668   0.39147   0.89374   0.09527
C          C       0.18682   0.59150   0.19710   0.59354
C          C       0.40821   0.24060   0.06886  -0.18789
C          C       0.50440   0.37549   0.64245  -0.14586
C          C       0.90476   0.39145   0.60627   0.10014
C          C       0.54221   0.64531   0.52025   0.54942
C          C       0.39313   0.90405   0.39325   0.09706
C          C       0.42943   0.85453   0.33948   0.00125
C          C       0.16769   0.40823   0.56887  -0.18821
C          C       0.81326   0.40855   0.80289   0.59397
C          C       0.24054   0.83232   0.93114  -0.18785
C          C       0.40457   0.59135   0.30293   0.59396
C          C       0.27631   0.43920   0.53490   0.07947
C          C       0.75951   0.16772   0.06889  -0.18862
C          C       0.59179   0.75946   0.93113  -0.18759
C          C       0.54222   0.89693   0.97976   0.54836
C          C       0.12769   0.49989   0.14211  -0.14583
C          C       0.16772   0.75953   0.56890  -0.18849
C          C       0.12771   0.62790   0.35800  -0.14474
C          C       0.57044   0.14537   0.66056   0.00125
C          C       0.59549   0.40869   0.69715   0.59406
C          C       0.85466   0.42951   0.83942   0.00144
C          C       0.14556   0.57509   0.33953   0.00156
C          C       0.39141   0.48665   0.39373   0.09797
C          C       0.40824   0.16771   0.06886  -0.18813
C          C       0.56082   0.72374   0.53488   0.07933
C          C       0.87228   0.37221   0.64205  -0.14563
C          C       0.43921   0.16291   0.46511   0.07925
C          C       0.24058   0.40821   0.56887  -0.18750
C          C       0.12895   0.50426   0.35763  -0.14574
C          C       0.43922   0.16294   0.03489   0.07975
C          C       0.27628   0.83708   0.53491   0.07957
C          C       0.89690   0.35466   0.47973   0.54919
C          C       0.49577   0.62459   0.35761  -0.14510
C          C       0.10311   0.64535   0.52028   0.54938
C          C       0.09601   0.60683   0.10678   0.09832
C          C       0.59539   0.18690   0.80301   0.59334
C          C       0.37528   0.87123   0.35759  -0.14564
C          C       0.35468   0.89691   0.97973   0.54882
C          C       0.37524   0.50415   0.14240  -0.14578
C          C       0.16294   0.43922   0.53489   0.07929
C          C       0.60676   0.51078   0.89328   0.09441
C          C       0.59178   0.83236   0.56886  -0.18798
C          C       0.64529   0.54221   0.47973   0.54902
C          C       0.59177   0.83235   0.93116  -0.18787
C          C       0.60877   0.51344   0.60635   0.09552
C          C       0.16291   0.43921   0.96508   0.07974
C          C       0.59139   0.18679   0.69710   0.59379
C          C       0.39142   0.90472   0.10631   0.10052
C          C       0.72371   0.56080   0.46512   0.07969
C          C       0.75943   0.59178   0.43115  -0.18766
C          C       0.18688   0.59551   0.30297   0.59347
C          C       0.10312   0.64535   0.97974   0.54918
C          C       0.40457   0.81312   0.19709   0.59350
C          C       0.27628   0.83706   0.96511   0.07987
C          C       0.83707   0.27627   0.03489   0.07927
C          C       0.09530   0.48671   0.10630   0.10023
C          C       0.40846   0.59544   0.19705   0.59403
C          C       0.37224   0.87229   0.14209  -0.14511
C          C       0.24054   0.40819   0.93110  -0.18814
C          C       0.83707   0.56079   0.46514   0.07966
C          C       0.87126   0.37531   0.85756  -0.14598
C          C       0.56082   0.72373   0.96510   0.07950
C          C       0.83708   0.56079   0.03488   0.07933
C          C       0.14544   0.57052   0.16056   0.00150
C          C       0.40846   0.81313   0.30294   0.59358
C          C       0.85442   0.42502   0.66049   0.00141
C          C       0.89689   0.35466   0.02025   0.54902
C          C       0.72372   0.56081   0.03487   0.07964
C          C       0.51326   0.90478   0.39373   0.09754
C          C       0.09602   0.48925   0.39325   0.09384
C          C       0.35469   0.45779   0.97973   0.54832
C          C       0.72373   0.16293   0.46510   0.07935
C          C       0.57482   0.14548   0.83955   0.00061
C          C       0.64529   0.54221   0.02025   0.54895
C          C       0.16768   0.75947   0.93113  -0.18765
C          C       0.12880   0.62469   0.14244  -0.14536
C          C       0.83232   0.59176   0.43116  -0.18830
C          C       0.42939   0.57493   0.16052   0.00101
C          C       0.59179   0.75947   0.56886  -0.18794
C          C       0.27627   0.43919   0.96508   0.08079
C          C       0.35473   0.45780   0.52028   0.54866
C          C       0.75944   0.59179   0.06886  -0.18776
C          C       0.45777   0.10306   0.47974   0.54932
C          C       0.24058   0.83238   0.56889  -0.18772
C          C       0.81292   0.40452   0.69699   0.59361
C          C       0.16765   0.40821   0.93110  -0.18805
C          C       0.45778   0.10308   0.02025   0.54871
C          C       0.43918   0.27629   0.03488   0.07976
C          C       0.90403   0.39317   0.89323   0.09417
C          C       0.49995   0.37217   0.85798  -0.14573
N          N       0.45931   0.92015   0.08904  -0.17105
N          N       0.54090   0.46104   0.58907  -0.17049
N          N       0.53908   0.45936   0.91099  -0.17140
N          N       0.46079   0.54061   0.08902  -0.17123
N          N       0.92015   0.46084   0.91098  -0.17132
N          N       0.54060   0.07973   0.91101  -0.16977
N          N       0.07977   0.54072   0.41100  -0.17056
N          N       0.07986   0.53916   0.08903  -0.17046
N          N       0.46080   0.92022   0.41100  -0.17013
N          N       0.53921   0.07987   0.58900  -0.17055
N          N       0.92019   0.45935   0.58902  -0.17039
N          N       0.45927   0.53906   0.41100  -0.17091
O          O       0.11074   0.62863   0.01330  -0.52505
O          O       0.62863   0.11074   0.51330  -0.52521
O          O       0.11073   0.62864   0.48672  -0.52503
O          O       0.19507   0.65625   0.28450  -0.56460
O          O       0.39914   0.95096   0.95640  -0.55639
O          O       0.88930   0.51787   0.51331  -0.52450
O          O       0.21580   0.66385   0.20777  -0.56985
O          O       0.34378   0.53887   0.28450  -0.56540
O          O       0.53904   0.34378   0.78454  -0.56490
O          O       0.66388   0.44793   0.79232  -0.57032
O          O       0.48218   0.37142   0.51331  -0.52468
O          O       0.54232   0.77118   0.51359  -0.08302
O          O       0.80492   0.46102   0.78442  -0.56554
O          O       0.22883   0.45769   0.98637  -0.08375
O          O       0.44795   0.78414   0.20781  -0.57052
O          O       0.37138   0.88927   0.48670  -0.52484
O          O       0.48211   0.11069   0.51329  -0.52509
O          O       0.51784   0.62859   0.48670  -0.52456
O          O       0.37141   0.48214   0.48673  -0.52478
O          O       0.37138   0.48216   0.01328  -0.52476
O          O       0.77117   0.54231   0.01358  -0.08315
O          O       0.66669   0.33341   0.75001  -1.05367
O          O       0.78374   0.44782   0.70757  -0.57035
O          O       0.54232   0.77116   0.98641  -0.08374
O          O       0.48215   0.37141   0.98671  -0.52480
O          O       0.65622   0.46124   0.71560  -0.56459
O          O       0.55220   0.33636   0.70783  -0.57117
O          O       0.88931   0.51789   0.98670  -0.52491
O          O       0.95096   0.39913   0.04359  -0.55742
O          O       0.39914   0.95098   0.54360  -0.55755
O          O       0.62864   0.11073   0.98672  -0.52500
O          O       0.33613   0.55212   0.20774  -0.57069
O          O       0.11070   0.48210   0.01328  -0.52486
O          O       0.33327   0.66660   0.25000  -1.05377
O          O       0.55183   0.95103   0.54360  -0.55652
O          O       0.51786   0.62861   0.01328  -0.52532
O          O       0.66376   0.21582   0.70777  -0.57071
O          O       0.88927   0.37138   0.98669  -0.52488
O          O       0.39918   0.44818   0.95639  -0.55654
O          O       0.95095   0.39912   0.45640  -0.55678
O          O       0.45769   0.22882   0.48641  -0.08324
O          O       0.22886   0.45770   0.51361  -0.08267
O          O       0.04897   0.44818   0.95639  -0.55615
O          O       0.19517   0.53901   0.21554  -0.56544
O          O       0.04905   0.60088   0.95640  -0.55734
O          O       0.21593   0.55215   0.29230  -0.57122
O          O       0.44819   0.39916   0.45641  -0.55712
O          O       0.22885   0.77115   0.51362  -0.08330
O          O       0.51786   0.88930   0.01332  -0.52446
O          O       0.78418   0.33617   0.79224  -0.57032
O          O       0.46091   0.80470   0.28451  -0.56497
O          O       0.55182   0.60081   0.95638  -0.55583
O          O       0.53893   0.19515   0.71555  -0.56578
O          O       0.62859   0.51786   0.51328  -0.52533
O          O       0.62858   0.51783   0.98670  -0.52436
O          O       0.51789   0.88932   0.48670  -0.52484
O          O       0.44787   0.66368   0.29225  -0.57094
O          O       0.55203   0.21593   0.79232  -0.57091
O          O       0.55182   0.60084   0.54360  -0.55753
O          O       0.46098   0.65621   0.21549  -0.56523
O          O       0.80476   0.34384   0.71549  -0.56525
O          O       0.60082   0.55181   0.04360  -0.55716
O          O       0.77115   0.22885   0.48640  -0.08377
O          O       0.04905   0.60088   0.54361  -0.55755
O          O       0.11071   0.48213   0.48670  -0.52439
O          O       0.48213   0.11071   0.98670  -0.52418
O          O       0.34369   0.80476   0.21549  -0.56518
O          O       0.95101   0.55182   0.04360  -0.55621
O          O       0.37139   0.88929   0.01329  -0.52543
O          O       0.33612   0.78418   0.29224  -0.57084
O          O       0.44819   0.39921   0.04361  -0.55620
O          O       0.77113   0.22883   0.01361  -0.08357
O          O       0.44818   0.04901   0.04359  -0.55656
O          O       0.39923   0.44820   0.54362  -0.55676
O          O       0.04901   0.44818   0.54359  -0.55718
O          O       0.88928   0.37138   0.51329  -0.52543
O          O       0.95098   0.55182   0.45642  -0.55640
O          O       0.65625   0.19525   0.78461  -0.56491
O          O       0.22887   0.77116   0.98640  -0.08391
O          O       0.45768   0.22884   0.01359  -0.08327
O          O       0.60087   0.04903   0.45640  -0.55729
O          O       0.77115   0.54231   0.48642  -0.08355
O          O       0.60086   0.04904   0.04361  -0.55710
O          O       0.55182   0.95099   0.95642  -0.55595
O          O       0.44818   0.04898   0.45639  -0.55608
O          O       0.60080   0.55180   0.45639  -0.55652

