data_crystal

_audit_creation_method 'AiiDA-DDEC plugin'

_cell_length_a        17.16410
_cell_length_b        17.30260
_cell_length_c        17.30457

_cell_angle_alpha     98.48850
_cell_angle_beta     115.38498
_cell_angle_gamma     115.42928

_symmetry_space_group_name_Hall 'P 1'
_symmetry_space_group_name_H-M  'P 1'

loop_
_symmetry_equiv_pos_as_xyz
 'x,y,z'

loop_
_atom_site_label
_atom_site_type_symbol
_atom_site_fract_x
_atom_site_fract_y
_atom_site_fract_z
_atom_site_charge
Zn         Zn      0.38211   0.59746   0.53515   0.77917
Zn         Zn      0.88216   0.84699   0.28464   0.78058
Zn         Zn      0.11783   0.15300   0.71536   0.78057
Zn         Zn      0.61788   0.40254   0.46485   0.77928
Zn         Zn      0.06199   0.21503   0.09725   0.78131
Zn         Zn      0.56218   0.96473   0.34721   0.78143
Zn         Zn      0.43781   0.03527   0.65279   0.78134
Zn         Zn      0.93800   0.78497   0.90275   0.78136
H          H       0.32936   0.44409   0.35675   0.10916
H          H       0.22459   0.41230   0.53675   0.13174
H          H       0.09986   0.21584   0.46098   0.11362
H          H       0.10817   0.12200   0.30139   0.12672
H          H       0.52796   0.52965   0.64610   0.11466
H          H       0.46230   0.71413   0.75007   0.13762
H          H       0.61486   0.78483   0.94463   0.12267
H          H       0.72710   0.68167   0.98040   0.14384
H          H       0.20943   0.26883   0.30210   0.28765
H          H       0.66133   0.61433   0.82349   0.29317
H          H       0.83023   0.97290   0.38586   0.10954
H          H       0.72380   0.68779   0.31147   0.13163
H          H       0.59849   0.63896   0.38285   0.11297
H          H       0.60969   0.80743   0.48785   0.12701
H          H       0.02880   0.88253   0.49806   0.11481
H          H       0.96244   0.71208   0.24812   0.13744
H          H       0.11553   0.67021   0.33004   0.12315
H          H       0.22711   0.74696   0.54525   0.14388
H          H       0.70981   0.90772   0.44089   0.28784
H          H       0.16186   0.83795   0.54669   0.29632
H          H       0.16976   0.02710   0.61414   0.10967
H          H       0.27619   0.31221   0.68853   0.13171
H          H       0.40150   0.36103   0.61716   0.11288
H          H       0.39030   0.19257   0.51215   0.12701
H          H       0.97119   0.11747   0.50194   0.11461
H          H       0.03755   0.28791   0.75188   0.13753
H          H       0.88446   0.32978   0.66996   0.12331
H          H       0.77288   0.25304   0.45475   0.14380
H          H       0.29018   0.09227   0.55911   0.28775
H          H       0.83813   0.16204   0.45331   0.29367
H          H       0.67063   0.55590   0.64325   0.10947
H          H       0.77540   0.58769   0.46325   0.13146
H          H       0.90013   0.78415   0.53902   0.11328
H          H       0.89182   0.87800   0.69861   0.12709
H          H       0.47203   0.47035   0.35390   0.11473
H          H       0.53769   0.28587   0.24993   0.13755
H          H       0.38513   0.21517   0.05537   0.12240
H          H       0.27289   0.31833   0.01960   0.14394
H          H       0.79056   0.73116   0.69790   0.28780
H          H       0.33866   0.38567   0.17651   0.29329
H          H       0.08671   0.11293   0.94470   0.11029
H          H       0.87501   0.18763   0.91201   0.13157
H          H       0.75541   0.11739   0.71571   0.11359
H          H       0.82070   0.01358   0.62275   0.12659
H          H       0.88337   0.00064   0.02968   0.11603
H          H       0.96260   0.25072   0.21299   0.13734
H          H       0.83920   0.16926   0.28391   0.12407
H          H       0.70088   0.95352   0.18170   0.14462
H          H       0.96690   0.05879   0.76946   0.28837
H          H       0.79092   0.95242   0.11458   0.29250
H          H       0.58699   0.14220   0.47336   0.11033
H          H       0.37475   0.96255   0.18748   0.13090
H          H       0.25409   0.03877   0.13834   0.11384
H          H       0.32147   0.19915   0.30673   0.12707
H          H       0.38408   0.85345   0.38335   0.11542
H          H       0.46249   0.74950   0.21144   0.13747
H          H       0.33960   0.55534   0.16994   0.12393
H          H       0.20111   0.51945   0.24733   0.14451
H          H       0.46693   0.19754   0.40771   0.28802
H          H       0.29127   0.67620   0.33863   0.29280
H          H       0.41300   0.85780   0.52664   0.11047
H          H       0.62524   0.03745   0.81252   0.13096
H          H       0.74590   0.96122   0.86166   0.11384
H          H       0.67852   0.80085   0.69327   0.12700
H          H       0.61591   0.14654   0.61665   0.11529
H          H       0.53750   0.25049   0.78856   0.13777
H          H       0.66039   0.44465   0.83006   0.12429
H          H       0.79888   0.48055   0.75268   0.14420
H          H       0.53306   0.80246   0.59229   0.28797
H          H       0.70872   0.32379   0.66137   0.29235
H          H       0.91328   0.88707   0.05530   0.11042
H          H       0.12498   0.81236   0.08800   0.13116
H          H       0.24458   0.88260   0.28429   0.11339
H          H       0.17929   0.98641   0.37725   0.12684
H          H       0.11662  -0.00065   0.97032   0.11614
H          H       0.03739   0.74927   0.78701   0.13743
H          H       0.16079   0.83073   0.71609   0.12419
H          H       0.29911   0.04647   0.81831   0.14460
H          H       0.03309   0.94121   0.23054   0.28863
H          H       0.20906   0.04758   0.88543   0.29235
C          C       0.28959   0.41144   0.38837   0.18340
C          C       0.23405   0.39278   0.48055  -0.08069
C          C       0.19123   0.30383   0.41837   0.13722
C          C       0.12397   0.21445   0.41209  -0.09743
C          C       0.08785   0.12968   0.35237  -0.25790
C          C       0.01637   0.04332   0.35285   0.60204
C          C       0.53232   0.58191   0.69425   0.14165
C          C       0.50019   0.67748   0.75094  -0.08002
C          C       0.58061   0.68297   0.82673   0.13964
C          C       0.63470   0.73633   0.92536  -0.09326
C          C       0.70483   0.72949   0.99481  -0.25373
C          C       0.75417   0.78472   0.09476   0.60305
C          C       0.79001   0.90147   0.37844   0.18246
C          C       0.73369   0.75358   0.34082  -0.08106
C          C       0.69106   0.77307   0.38720   0.13720
C          C       0.62359   0.71216   0.40921  -0.09673
C          C       0.58823   0.73592   0.45868  -0.25831
C          C       0.51593   0.66378   0.47277   0.60364
C          C       0.03312   0.83857   0.45023   0.14265
C          C       0.00057   0.74926   0.32260  -0.08107
C          C       0.08104   0.75386   0.39744   0.13751
C          C       0.13521   0.70928   0.39826  -0.09409
C          C       0.20535   0.71024   0.47543  -0.25215
C          C       0.25529   0.65997   0.47042   0.60355
C          C       0.20998   0.09853   0.62156   0.18260
C          C       0.26630   0.24641   0.65919  -0.08106
C          C       0.30893   0.22693   0.61280   0.13669
C          C       0.37640   0.28784   0.59079  -0.09645
C          C       0.41176   0.26407   0.54132  -0.25835
C          C       0.48406   0.33622   0.52723   0.60401
C          C       0.96687   0.16143   0.54977   0.14251
C          C      -0.00058   0.25073   0.67740  -0.08100
C          C       0.91895   0.24614   0.60256   0.13775
C          C       0.86478   0.29071   0.60174  -0.09417
C          C       0.79464   0.28975   0.52457  -0.25219
C          C       0.74470   0.34003   0.52958   0.60332
C          C       0.71040   0.58855   0.61164   0.18376
C          C       0.76594   0.60721   0.51945  -0.08095
C          C       0.80876   0.69617   0.58163   0.13682
C          C       0.87602   0.78554   0.58791  -0.09732
C          C       0.91214   0.87032   0.64764  -0.25789
C          C       0.98362   0.95668   0.64715   0.60216
C          C       0.46767   0.41808   0.30575   0.14194
C          C       0.49980   0.32251   0.24906  -0.08022
C          C       0.41938   0.31702   0.17327   0.13938
C          C       0.36529   0.26366   0.07464  -0.09324
C          C       0.29516   0.27050   0.00519  -0.25356
C          C       0.24582   0.21527   0.90524   0.60307
C          C       0.02252   0.12049   0.91180   0.18128
C          C       0.91179   0.15838   0.89274  -0.08023
C          C       0.88527   0.11239   0.80397   0.13701
C          C       0.80250   0.09105   0.71451  -0.09627
C          C       0.77758   0.04227   0.62990  -0.25741
C          C       0.69143   0.02812   0.54316   0.60153
C          C       0.88726   0.04854   0.08180   0.13703
C          C       0.92538   0.17623   0.17669  -0.07962
C          C       0.85554   0.10143   0.18252   0.13756
C          C       0.81029   0.10085   0.23582  -0.09653
C          C       0.73423   0.02375   0.22929  -0.25114
C          C       0.68977   0.02975   0.28474   0.60247
C          C       0.52255   0.11074   0.40172   0.18166
C          C       0.41146   0.01868   0.25338  -0.07926
C          C       0.38499   0.08108   0.27273   0.13663
C          C       0.30205   0.08775   0.21153  -0.09755
C          C       0.27772   0.14805   0.23526  -0.25692
C          C       0.19123   0.14826   0.16332   0.60276
C          C       0.38765   0.80530   0.33895   0.13911
C          C       0.42546   0.74865   0.24895  -0.08008
C          C       0.35559   0.67298   0.25387   0.13923
C          C       0.31048   0.57450   0.20930  -0.09721
C          C       0.23446   0.50504   0.21046  -0.25064
C          C       0.18998   0.40515   0.16009   0.60306
C          C       0.47744   0.88926   0.59828   0.18164
C          C       0.58853   0.98132   0.74662  -0.07939
C          C       0.61500   0.91892   0.72727   0.13665
C          C       0.69794   0.91224   0.78847  -0.09741
C          C       0.72227   0.85195   0.76474  -0.25701
C          C       0.80876   0.85173   0.83668   0.60274
C          C       0.61234   0.19469   0.66105   0.13898
C          C       0.57453   0.25135   0.75105  -0.07980
C          C       0.64439   0.32701   0.74613   0.13936
C          C       0.68951   0.42550   0.79070  -0.09722
C          C       0.76553   0.49496   0.78954  -0.25086
C          C       0.81001   0.59484   0.83991   0.60324
C          C       0.97747   0.87950   0.08820   0.18154
C          C       0.08820   0.84162   0.10726  -0.08027
C          C       0.11472   0.88760   0.19603   0.13680
C          C       0.19749   0.90895   0.28549  -0.09623
C          C       0.22241   0.95773   0.37011  -0.25736
C          C       0.30856   0.97188   0.45684   0.60157
C          C       0.11273   0.95146   0.91821   0.13738
C          C       0.07461   0.82377   0.82331  -0.07962
C          C       0.14445   0.89856   0.81748   0.13742
C          C       0.18970   0.89915   0.76418  -0.09666
C          C       0.26576   0.97624   0.77071  -0.25110
C          C       0.31022   0.97025   0.71526   0.60257
N          N       0.29516   0.45880   0.46137  -0.28032
N          N       0.22865   0.31861   0.36120  -0.23076
N          N       0.47084   0.61449   0.66940  -0.29772
N          N       0.59860   0.62113   0.78806  -0.23328
N          N       0.79519   0.83393   0.33626  -0.28018
N          N       0.72897   0.86775   0.41029  -0.23007
N          N       0.97143   0.80175   0.35627  -0.29757
N          N       0.09929   0.81081   0.47723  -0.23305
N          N       0.20480   0.16606   0.66374  -0.27973
N          N       0.27102   0.13224   0.58971  -0.23025
N          N       0.02856   0.19824   0.64373  -0.29781
N          N       0.90070   0.18918   0.52277  -0.23182
N          N       0.70483   0.54119   0.53863  -0.28029
N          N       0.77134   0.68138   0.63880  -0.23058
N          N       0.52915   0.38550   0.33060  -0.29795
N          N       0.40139   0.37887   0.21194  -0.23307
N          N       0.99675   0.16255   0.95889  -0.28042
N          N       0.95711   0.08904   0.81900  -0.23165
N          N       0.94400   0.14248   0.11383  -0.29861
N          N       0.83291   0.02159   0.12123  -0.22763
N          N       0.49662   0.03767   0.33408  -0.28097
N          N       0.45710   0.13816   0.36771  -0.23142
N          N       0.44437   0.83009   0.30168  -0.29841
N          N       0.33305   0.71155   0.31127  -0.22972
N          N       0.50337   0.96233   0.66592  -0.28054
N          N       0.54289   0.86184   0.63229  -0.23176
N          N       0.55562   0.16991   0.69832  -0.29810
N          N       0.66694   0.28844   0.68873  -0.23000
N          N       0.00324   0.83744   0.04111  -0.28051
N          N       0.04288   0.91095   0.18101  -0.23151
N          N       0.05599   0.85751   0.88617  -0.29817
N          N       0.16708   0.97840   0.87877  -0.22805
O          O       0.98811   0.96494   0.29283  -0.57319
O          O       0.98461   0.04418   0.40555  -0.55233
O          O       0.80796   0.76073   0.15267  -0.55257
O          O       0.74440   0.85049   0.12127  -0.58598
O          O       0.48797   0.69544   0.52330  -0.57260
O          O       0.48331   0.57921   0.43917  -0.55337
O          O       0.30901   0.65634   0.54852  -0.55087
O          O       0.24615   0.62339   0.39534  -0.58743
O          O       0.51202   0.30456   0.47671  -0.57294
O          O       0.51668   0.42078   0.56083  -0.55360
O          O       0.69098   0.34365   0.45148  -0.55103
O          O       0.75384   0.37660   0.60466  -0.58703
O          O       0.01188   0.03506   0.70718  -0.57288
O          O       0.01538   0.95582   0.59445  -0.55293
O          O       0.19203   0.23927   0.84733  -0.55248
O          O       0.25559   0.14950   0.87873  -0.58627
O          O       0.67265   0.97721   0.46503  -0.57304
O          O       0.64049   0.06221   0.54344  -0.55227
O          O       0.60785   0.95148   0.26115  -0.55188
O          O       0.72920   0.10567   0.35033  -0.58700
O          O       0.17220   0.20744   0.19540  -0.57273
O          O       0.14015   0.09682   0.07840  -0.55367
O          O       0.10771   0.34677   0.15600  -0.55215
O          O       0.22976   0.37904   0.12394  -0.58674
O          O       0.82779   0.79255   0.80460  -0.57290
O          O       0.85984   0.90318   0.92160  -0.55361
O          O       0.89228   0.65322   0.84400  -0.55282
O          O       0.77023   0.62096   0.87606  -0.58624
O          O       0.32734   0.02279   0.53497  -0.57284
O          O       0.35950   0.93778   0.45656  -0.55263
O          O       0.39214   0.04852   0.73885  -0.55216
O          O       0.27079   0.89433   0.64967  -0.58847

