data_crystal

_audit_creation_method 'AiiDA-DDEC plugin'

_cell_length_a         7.19232
_cell_length_b        23.13411
_cell_length_c        23.13507

_cell_angle_alpha     88.54486
_cell_angle_beta     80.82740
_cell_angle_gamma     80.83073

_symmetry_space_group_name_Hall 'P 1'
_symmetry_space_group_name_H-M  'P 1'

loop_
_symmetry_equiv_pos_as_xyz
 'x,y,z'

loop_
_atom_site_label
_atom_site_type_symbol
_atom_site_fract_x
_atom_site_fract_y
_atom_site_fract_z
_atom_site_charge
Ag         Ag      0.87157   0.39742   0.97642   0.25811
Ag         Ag      0.24606   0.10141   0.52373   0.25841
Ag         Ag      0.76818   0.97684   0.10161   0.25817
Ag         Ag      0.84875   0.52414   0.39764   0.25815
Ag         Ag      0.12843   0.60257   0.02358   0.25813
Ag         Ag      0.75395   0.89859   0.47627   0.25845
Ag         Ag      0.23182   0.02316   0.89839   0.25812
Ag         Ag      0.15126   0.47586   0.60236   0.25809
H          H       0.62919   0.48132   0.86224   0.10752
H          H       0.41321   0.57050   0.90393   0.06265
H          H       0.12279   0.47149   0.02947   0.07077
H          H       0.33153   0.38077   0.99661   0.10143
H          H       0.85994   0.19866   0.78105   0.12095
H          H       0.04155   0.10035   0.79019   0.08601
H          H       0.06397   0.12592   0.96570   0.07804
H          H       0.88451   0.22484   0.96492   0.10774
H          H       0.44637   0.22913   0.95607   0.12933
H          H       0.38743   0.19894   0.06219   0.10685
H          H       0.52744   0.25046   0.13626   0.10982
H          H       0.71446   0.33038   0.10070   0.08194
H          H       0.97232   0.01773   0.63693   0.10837
H          H       0.88557   0.92961   0.59511   0.06294
H          H       0.62374   0.03036   0.47034   0.07290
H          H       0.71024   0.12022   0.50350   0.10190
H          H       0.83996   0.30009   0.71891   0.12168
H          H       0.93356   0.39777   0.71047   0.08649
H          H       0.15548   0.37360   0.53421   0.07889
H          H       0.07295   0.27527   0.53438   0.10764
H          H       0.63208   0.27104   0.54408   0.12912
H          H       0.64889   0.30100   0.43800   0.10614
H          H       0.91613   0.24909   0.36352   0.10905
H          H       0.14872   0.16910   0.39888   0.08175
H          H       0.61060   0.86233   0.01874   0.10831
H          H       0.48307   0.90387   0.93018   0.06423
H          H       0.09425   0.02968   0.02991   0.07144
H          H       0.21297   0.99690   0.12010   0.10218
H          H       0.55952   0.78131   0.30148   0.12159
H          H       0.64416   0.79044   0.39919   0.08547
H          H       0.69034   0.96615   0.37339   0.07811
H          H       0.60821   0.96535   0.27503   0.10887
H          H       0.17436   0.95635   0.27139   0.12832
H          H       0.08453   0.06250   0.30146   0.10643
H          H       0.27690   0.13658   0.24977   0.11009
H          H       0.54475   0.10098   0.16944   0.08175
H          H       0.48969   0.63709   0.48229   0.10783
H          H       0.31527   0.59509   0.57106   0.06374
H          H       0.15248   0.47057   0.47107   0.07002
H          H       0.32842   0.50381   0.38067   0.10228
H          H       0.63863   0.71917   0.20002   0.12114
H          H       0.82928   0.71067   0.10175   0.08605
H          H       0.02874   0.53462   0.12578   0.07842
H          H       0.84876   0.53481   0.22467   0.10859
H          H       0.40330   0.54433   0.22947   0.12949
H          H       0.45099   0.43826   0.19941   0.10591
H          H       0.66574   0.36383   0.25116   0.10916
H          H       0.81773   0.39921   0.33075   0.08187
H          H       0.37081   0.51868   0.13776   0.10743
H          H       0.58679   0.42950   0.09606   0.06259
H          H       0.87721   0.52851   0.97052   0.07088
H          H       0.66847   0.61923   0.00338   0.10150
H          H       0.14006   0.80134   0.21895   0.12083
H          H       0.95846   0.89965   0.20981   0.08592
H          H       0.93604   0.87408   0.03430   0.07822
H          H       0.11550   0.77516   0.03508   0.10793
H          H       0.55363   0.77087   0.04392   0.12925
H          H       0.61258   0.80106   0.93781   0.10684
H          H       0.47256   0.74954   0.86373   0.10997
H          H       0.28555   0.66962   0.89930   0.08204
H          H       0.02768   0.98227   0.36306   0.10844
H          H       0.11444   0.07038   0.40488   0.06296
H          H       0.37627   0.96964   0.52965   0.07275
H          H       0.28976   0.87978   0.49650   0.10183
H          H       0.16004   0.69990   0.28108   0.12184
H          H       0.06645   0.60223   0.28952   0.08674
H          H       0.84453   0.62639   0.46579   0.07876
H          H       0.92705   0.72473   0.46562   0.10745
H          H       0.36792   0.72896   0.45591   0.12923
H          H       0.35112   0.69900   0.56200   0.10611
H          H       0.08388   0.75091   0.63648   0.10884
H          H       0.85128   0.83090   0.60112   0.08163
H          H       0.38940   0.13767   0.98125   0.10832
H          H       0.51693   0.09613   0.06981   0.06412
H          H       0.90576   0.97032   0.97009   0.07152
H          H       0.78703   0.00310   0.87989   0.10240
H          H       0.44049   0.21869   0.69851   0.12150
H          H       0.35584   0.20956   0.60081   0.08550
H          H       0.30966   0.03385   0.62661   0.07816
H          H       0.39180   0.03465   0.72496   0.10887
H          H       0.82564   0.04365   0.72861   0.12838
H          H       0.91548   0.93750   0.69854   0.10653
H          H       0.72311   0.86342   0.75023   0.11015
H          H       0.45526   0.89902   0.83056   0.08167
H          H       0.51032   0.36291   0.51771   0.10797
H          H       0.68473   0.40491   0.42893   0.06386
H          H       0.84753   0.52943   0.52893   0.07000
H          H       0.67159   0.49619   0.61933   0.10219
H          H       0.36137   0.28082   0.79997   0.12120
H          H       0.17073   0.28933   0.89825   0.08598
H          H       0.97126   0.46538   0.87421   0.07826
H          H       0.15125   0.46519   0.77533   0.10863
H          H       0.59670   0.45567   0.77053   0.12940
H          H       0.54902   0.56174   0.80058   0.10580
H          H       0.33426   0.63617   0.74883   0.10904
H          H       0.18228   0.60079   0.66924   0.08193
C          C       0.51653   0.47811   0.89896  -0.18154
C          C       0.39695   0.52738   0.92194   0.04002
C          C       0.23813   0.47253   0.99297   0.05010
C          C       0.35565   0.42123   0.97398  -0.18932
C          C       0.49768   0.42192   0.92358   0.02807
C          C       0.60628   0.37098   0.89356   0.17192
C          C       0.74787   0.28019   0.86899   0.18802
C          C       0.84796   0.22126   0.87298   0.06416
C          C       0.89901   0.18440   0.82334  -0.13543
C          C       0.00178   0.12898   0.82821   0.07739
C          C       0.01398   0.14327   0.92581   0.07284
C          C       0.91050   0.19887   0.92522  -0.18804
C          C       0.60305   0.29662   0.97499   0.29650
C          C       0.49841   0.25089   0.99025  -0.19584
C          C       0.46921   0.23399   0.04882  -0.04365
C          C       0.54610   0.26269   0.09022  -0.18303
C          C       0.64930   0.30738   0.07066   0.07294
C          C       0.89302   0.02170   0.60044  -0.18438
C          C       0.84480   0.97291   0.57737   0.04029
C          C       0.70338   0.02867   0.50674   0.04493
C          C       0.75159   0.07952   0.52584  -0.18680
C          C       0.84345   0.07811   0.57614   0.02786
C          C       0.87101   0.12872   0.60624   0.17167
C          C       0.89672   0.21933   0.63070   0.18676
C          C       0.94189   0.27809   0.62670   0.06343
C          C       0.90716   0.31449   0.67661  -0.13686
C          C       0.95987   0.36968   0.67209   0.07586
C          C       0.08313   0.35610   0.57414   0.07019
C          C       0.03405   0.30076   0.57442  -0.18618
C          C       0.87598   0.20313   0.52483   0.29647
C          C       0.74038   0.24903   0.50974  -0.19738
C          C       0.75298   0.26586   0.45118  -0.04456
C          C       0.90068   0.23694   0.40959  -0.17908
C          C       0.02979   0.19222   0.42903   0.07361
C          C       0.49480   0.89910   0.02235  -0.18481
C          C       0.42409   0.92202   0.97333   0.03788
C          C       0.21084   0.99320   0.02854   0.04851
C          C       0.27751   0.97424   0.07960  -0.18991
C          C       0.42026   0.92379   0.07861   0.02978
C          C       0.47766   0.89374   0.12939   0.17330
C          C       0.52787   0.86928   0.22004   0.18664
C          C       0.56907   0.87332   0.27877   0.06397
C          C       0.58412   0.82366   0.31556  -0.13729
C          C       0.63214   0.82853   0.37070   0.07876
C          C       0.65770   0.92622   0.35628   0.07192
C          C       0.60895   0.92562   0.30098  -0.18885
C          C       0.39945   0.97525   0.20365   0.29685
C          C       0.24838   0.99055   0.24949  -0.19586
C          C       0.20201   0.04914   0.26634  -0.04396
C          C       0.30792   0.09054   0.23746  -0.18235
C          C       0.45649   0.07094   0.19266   0.07381
C          C       0.41398   0.60058   0.47875  -0.18221
C          C       0.31726   0.57747   0.52780   0.03934
C          C       0.23062   0.50696   0.47243   0.05111
C          C       0.32938   0.52610   0.42132  -0.19127
C          C       0.42005   0.57638   0.42241   0.02932
C          C       0.49852   0.60646   0.37163   0.17271
C          C       0.61543   0.63100   0.28089   0.18794
C          C       0.71953   0.62703   0.22195   0.06350
C          C       0.72055   0.67691   0.18546  -0.13558
C          C       0.82810   0.67239   0.13001   0.07777
C          C       0.93871   0.57451   0.14350   0.07230
C          C       0.83479   0.57479   0.19912  -0.18896
C          C       0.57857   0.52510   0.29715   0.29389
C          C       0.48950   0.51003   0.25136  -0.19635
C          C       0.51934   0.45147   0.23447  -0.04383
C          C       0.63802   0.40992   0.26322  -0.17935
C          C       0.72182   0.42933   0.30784   0.07157
C          C       0.48347   0.52189   0.10103  -0.18174
C          C       0.60305   0.47262   0.07806   0.04001
C          C       0.76187   0.52747   0.00702   0.05037
C          C       0.64436   0.57877   0.02601  -0.18948
C          C       0.50232   0.57808   0.07642   0.02810
C          C       0.39373   0.62902   0.10644   0.17212
C          C       0.25213   0.71981   0.13101   0.18802
C          C       0.15205   0.77874   0.12702   0.06425
C          C       0.10099   0.81560   0.17665  -0.13544
C          C      -0.00178   0.87102   0.17179   0.07724
C          C       0.98603   0.85673   0.07418   0.07305
C          C       0.08950   0.80113   0.07477  -0.18807
C          C       0.39696   0.70338   0.02501   0.29641
C          C       0.50160   0.74910   0.00975  -0.19600
C          C       0.53079   0.76601   0.95118  -0.04348
C          C       0.45390   0.73730   0.90978  -0.18301
C          C       0.35070   0.69262   0.92933   0.07302
C          C       0.10698   0.97830   0.39956  -0.18436
C          C       0.15520   0.02709   0.42262   0.04023
C          C       0.29662   0.97133   0.49326   0.04474
C          C       0.24841   0.92048   0.47416  -0.18670
C          C       0.15655   0.92189   0.42386   0.02796
C          C       0.12899   0.87128   0.39375   0.17149
C          C       0.10328   0.78067   0.36930   0.18709
C          C       0.05812   0.72191   0.37330   0.06317
C          C       0.09284   0.68551   0.32339  -0.13660
C          C       0.04014   0.63032   0.32790   0.07573
C          C       0.91688   0.64390   0.42585   0.07012
C          C       0.96595   0.69924   0.42558  -0.18618
C          C       0.12402   0.79687   0.47517   0.29675
C          C       0.25962   0.75097   0.49025  -0.19721
C          C       0.24702   0.73414   0.54882  -0.04452
C          C       0.09933   0.76306   0.59041  -0.17913
C          C       0.97021   0.80778   0.57097   0.07361
C          C       0.50521   0.10090   0.97765  -0.18523
C          C       0.57591   0.07798   0.02667   0.03791
C          C       0.78916   0.00680   0.97145   0.04837
C          C       0.72249   0.02576   0.92040  -0.18967
C          C       0.57974   0.07620   0.92139   0.03001
C          C       0.52235   0.10626   0.87061   0.17302
C          C       0.47213   0.13072   0.77995   0.18663
C          C       0.43093   0.12668   0.72123   0.06394
C          C       0.41589   0.17634   0.68444  -0.13734
C          C       0.36786   0.17147   0.62930   0.07877
C          C       0.34230   0.07378   0.64372   0.07213
C          C       0.39106   0.07438   0.69902  -0.18898
C          C       0.60056   0.02475   0.79634   0.29687
C          C       0.75163   0.00944   0.75051  -0.19594
C          C       0.79800   0.95086   0.73365  -0.04386
C          C       0.69208   0.90946   0.76254  -0.18209
C          C       0.54352   0.92906   0.80733   0.07370
C          C       0.58602   0.39942   0.52125  -0.18233
C          C       0.68274   0.42252   0.47219   0.03938
C          C       0.76938   0.49304   0.52757   0.05085
C          C       0.67062   0.47390   0.57867  -0.19137
C          C       0.57995   0.42362   0.57759   0.02937
C          C       0.50149   0.39354   0.62837   0.17272
C          C       0.38458   0.36900   0.71911   0.18781
C          C       0.28047   0.37296   0.77805   0.06345
C          C       0.27945   0.32308   0.81454  -0.13530
C          C       0.17190   0.32761   0.86999   0.07758
C          C       0.06130   0.42549   0.85650   0.07236
C          C       0.16522   0.42521   0.80088  -0.18901
C          C       0.42144   0.47490   0.70285   0.29394
C          C       0.51050   0.48997   0.74863  -0.19614
C          C       0.48066   0.54853   0.76552  -0.04392
C          C       0.36199   0.59008   0.73677  -0.17940
C          C       0.27818   0.57067   0.69216   0.07151
N          N       0.25067   0.52597   0.96754  -0.25183
N          N       0.68100   0.36971   0.83617  -0.25063
N          N       0.76448   0.31423   0.82143  -0.19291
N          N       0.64244   0.31430   0.91604  -0.14944
N          N       0.05934   0.10735   0.87864  -0.22151
N          N       0.67870   0.32469   0.01433  -0.29971
N          N       0.74265   0.97506   0.53200  -0.25033
N          N       0.88656   0.12986   0.66356  -0.24928
N          N       0.89931   0.18525   0.67825  -0.19358
N          N       0.87327   0.18536   0.58373  -0.14780
N          N       0.04615   0.39156   0.62166  -0.22072
N          N       0.01988   0.17490   0.48535  -0.30068
N          N       0.27645   0.96768   0.97506  -0.24935
N          N       0.55105   0.83635   0.13063  -0.25275
N          N       0.57877   0.82169   0.18603  -0.19119
N          N       0.45668   0.91629   0.18601  -0.14785
N          N       0.66795   0.87899   0.39213  -0.22055
N          N       0.50348   0.01458   0.17538  -0.30102
N          N       0.21685   0.53214   0.52600  -0.25271
N          N       0.51549   0.66376   0.37046  -0.24986
N          N       0.58388   0.67852   0.31499  -0.19373
N          N       0.55770   0.58401   0.31493  -0.14900
N          N       0.93656   0.62198   0.10797  -0.22195
N          N       0.69422   0.48564   0.32519  -0.29686
N          N       0.74933   0.47403   0.03245  -0.25171
N          N       0.31900   0.63029   0.16382  -0.25071
N          N       0.23552   0.68577   0.17856  -0.19335
N          N       0.35756   0.68570   0.08395  -0.14946
N          N       0.94067   0.89265   0.12136  -0.22185
N          N       0.32130   0.67531   0.98567  -0.29967
N          N       0.25735   0.02494   0.46800  -0.25022
N          N       0.11344   0.87014   0.33643  -0.24912
N          N       0.10069   0.81475   0.32175  -0.19331
N          N       0.12673   0.81464   0.41626  -0.14807
N          N       0.95385   0.60844   0.37833  -0.22068
N          N       0.98012   0.82510   0.51464  -0.30097
N          N       0.72356   0.03232   0.02493  -0.24958
N          N       0.44895   0.16365   0.86937  -0.25307
N          N       0.42123   0.17831   0.81396  -0.19114
N          N       0.54332   0.08371   0.81399  -0.14749
N          N       0.33205   0.12100   0.60787  -0.22044
N          N       0.49653   0.98541   0.82461  -0.30121
N          N       0.78315   0.46786   0.47400  -0.25236
N          N       0.48452   0.33624   0.62954  -0.24927
N          N       0.41612   0.32148   0.68501  -0.19382
N          N       0.44231   0.41599   0.68507  -0.14920
N          N       0.06344   0.37802   0.89203  -0.22204
N          N       0.30578   0.51435   0.67481  -0.29678

