data_crystal

_audit_creation_method 'AiiDA-DDEC plugin'

_cell_length_a        11.45416
_cell_length_b        18.00401
_cell_length_c        21.35744

_cell_angle_alpha     89.93585
_cell_angle_beta     89.99687
_cell_angle_gamma     92.92176

_symmetry_space_group_name_Hall 'P 1'
_symmetry_space_group_name_H-M  'P 1'

loop_
_symmetry_equiv_pos_as_xyz
 'x,y,z'

loop_
_atom_site_label
_atom_site_type_symbol
_atom_site_fract_x
_atom_site_fract_y
_atom_site_fract_z
_atom_site_charge
Mn         Mn      0.81564   0.47950   0.85853   1.25707
Mn         Mn      0.11054   0.03614   0.59180   1.35033
Mn         Mn      0.18197   0.02089   0.35711   1.25518
Mn         Mn      0.56321   0.04239   0.58556   1.11863
Mn         Mn      0.88903   0.46447   0.09384   1.35082
Mn         Mn      0.18418   0.52096   0.14106   1.25792
Mn         Mn      0.88626   0.96366   0.40529   1.34863
Mn         Mn      0.56293   0.54223   0.91404   1.11880
Mn         Mn      0.11152   0.53780   0.90652   1.35078
Mn         Mn      0.81623   0.97890   0.64063   1.26004
Mn         Mn      0.43388   0.95779   0.41378   1.12236
Mn         Mn      0.43610   0.45771   0.08531   1.11820
H          H       0.23493   0.20492   0.49298   0.11083
H          H       0.22123   0.95801   0.78041   0.15605
H          H       0.08408   0.32686   0.88889   0.13518
H          H       0.22195   0.45795   0.72031   0.15558
H          H       0.28751   0.14540   0.97561   0.11949
H          H       0.90241   0.31375   0.38168   0.13059
H          H       0.61925   0.51089   0.52360   0.15444
H          H       0.01371   0.62019   0.44800   0.12291
H          H       0.53095   0.10894   0.05770   0.11876
H          H       0.53382   0.60801   0.44107   0.11892
H          H       0.77883   0.54257   0.27972   0.15623
H          H       0.91602   0.17559   0.38716   0.13588
H          H       0.09508   0.18876   0.88111   0.12970
H          H       0.72572   0.71696   0.00742   0.11427
H          H       0.46188   0.89325   0.94163   0.11866
H          H       0.30270   0.80199   0.35214   0.12316
H          H       0.24359   0.46319   0.96206   0.38430
H          H       0.08155   0.82629   0.60942   0.13583
H          H       0.27313   0.28249   0.99224   0.11398
H          H       0.86109   0.97642   0.03056   0.15398
H          H       0.23246   0.56411   0.30161   0.14203
H          H       0.16687   0.21407   0.65210   0.12090
H          H       0.60922   0.18636   0.87443   0.12764
H          H       0.47414   0.57668   0.70126   0.15357
H          H       0.03524   0.24811   0.56748   0.10994
H          H       0.27544   0.78431   0.50654   0.11435
H          H       0.52625   0.42367   0.29912   0.15305
H          H       0.86316   0.47693   0.46850   0.15399
H          H       0.83075   0.28379   0.15213   0.12195
H          H       0.76861   0.93606   0.80195   0.14226
H          H       0.34737   0.57829   0.08564   0.36204
H          H       0.22690   0.34255   0.48331   0.12381
H          H       0.58727   0.32190   0.88410   0.10581
H          H       0.34491   0.07833   0.41193   0.36184
H          H       0.82933   0.78608   0.34624   0.12096
H          H       0.75427   0.53759   0.03893   0.38479
H          H       0.13560   0.34970   0.65296   0.12166
H          H       0.90212   0.81246   0.11890   0.13071
H          H       0.23144   0.06416   0.19670   0.14253
H          H       0.38902   0.31459   0.37510   0.12704
H          H       0.37587   0.98954   0.02273   0.15438
H          H       0.12991   0.02402   0.96797   0.15433
H          H       0.65386   0.42117   0.91452   0.36265
H          H       0.49621   0.75709   0.93995   0.10560
H          H       0.64281   0.32775   0.63014   0.13080
H          H       0.49657   0.25486   0.55994   0.10549
H          H       0.50186   0.24574   0.05841   0.10458
H          H       0.47433   0.07603   0.79750   0.15324
H          H       0.86047   0.14816   0.15223   0.12242
H          H       0.69624   0.19743   0.64761   0.12227
H          H       0.09558   0.42967   0.31627   0.14387
H          H       0.50109   0.74434   0.43970   0.10521
H          H       0.28784   0.64700   0.52261   0.11963
H          H       0.72325   0.21564   0.49270   0.11394
H          H       0.77188   0.65588   0.51656   0.12463
H          H       0.01415   0.12133   0.05025   0.12306
H          H       0.91655   0.67448   0.11204   0.13587
H          H       0.98214   0.37959   0.54970   0.12247
H          H       0.35522   0.17158   0.12928   0.13015
H          H       0.23503   0.70623   0.00607   0.11114
H          H       0.03553   0.74807   0.93270   0.10852
H          H       0.46566   0.39150   0.55937   0.11903
H          H       0.16770   0.71449   0.84691   0.12146
H          H       0.09149   0.93001   0.18393   0.14477
H          H       0.71165   0.85421   0.02295   0.11885
H          H       0.77218   0.04059   0.21900   0.15617
H          H       0.90519   0.57108   0.68404   0.14397
H          H       0.96197   0.75201   0.43071   0.10916
H          H       0.38915   0.81473   0.12367   0.12672
H          H       0.96316   0.25333   0.06789   0.10948
H          H       0.24548   0.96240   0.53764   0.38534
H          H       0.65234   0.92197   0.58714   0.36279
H          H       0.13329   0.84960   0.84704   0.12271
H          H       0.41072   0.67903   0.11504   0.10564
H          H       0.69580   0.69864   0.85319   0.12431
H          H       0.90474   0.07279   0.81294   0.14415
H          H       0.71028   0.35295   0.47706   0.11981
H          H       0.09700   0.68835   0.61700   0.13091
H          H       0.58860   0.82097   0.61593   0.10615
H          H       0.13652   0.52286   0.53155   0.15445
H          H       0.64467   0.82971   0.86944   0.13129
H          H       0.40967   0.17887   0.38367   0.10604
H          H       0.30383   0.30252   0.14610   0.12211
H          H       0.62227   0.01211   0.97508   0.15369
H          H       0.76596   0.43462   0.69666   0.14220
H          H       0.98447   0.88011   0.94969   0.12311
H          H       0.86274   0.65079   0.34629   0.12218
H          H       0.37569   0.48811   0.47568   0.15472
H          H       0.35415   0.67116   0.36880   0.13089
H          H       0.77034   0.15993   0.98259   0.12457
H          H       0.76181   0.79313   0.50489   0.11035
H          H       0.22620   0.84362   0.01721   0.12427
H          H       0.76463   0.29720   0.99423   0.11096
H          H       0.52525   0.92359   0.19931   0.15268
H          H       0.75180   0.03639   0.46057   0.38568
H          H       0.60853   0.68533   0.62521   0.12813
C          C       0.24010   0.26248   0.12601  -0.06174
C          C       0.12933   0.28578   0.10881  -0.07158
C          C       0.18662   0.13917   0.08895   0.25706
C          C       0.62959   0.00285   0.72290   0.59318
C          C       0.65348   0.73862   0.03362  -0.05933
C          C       0.40188   0.35231   0.58045  -0.21504
C          C       0.66261   0.77367   0.39220  -0.07881
C          C       0.42672   0.39279   0.95237   0.60857
C          C       0.72906   0.31058   0.61712  -0.20901
C          C       0.43047   0.31157   0.94031  -0.07348
C          C       0.87000   0.71537   0.89120  -0.07031
C          C       0.05982   0.01416   0.78988   0.00550
C          C       0.93581   0.66460   0.56631   0.26123
C          C       0.16369   0.72963   0.03172  -0.07290
C          C       0.47439   0.21659   0.40576  -0.06361
C          C       0.92291   0.83996   0.92813  -0.21123
C          C       0.70220   0.46611   0.67184  -0.22949
C          C       0.92106   0.33931   0.57153  -0.20846
C          C       0.62287   0.01076   0.92414  -0.28668
C          C       0.07592   0.18203   0.44057  -0.08901
C          C       0.46322   0.29297   0.39958  -0.22134
C          C       0.96854   0.99475   0.27530   0.60515
C          C       0.66418   0.27341   0.10605  -0.08157
C          C       0.21348   0.82987   0.86658  -0.22422
C          C       0.78107   0.16895   0.13269  -0.22693
C          C       0.37897   0.49452   0.29347   0.00413
C          C       0.29616   0.87938   0.89430   0.25574
C          C       0.98390   0.44691   0.39570   0.26582
C          C       0.39916   0.85374   0.92013  -0.21213
C          C       0.54066   0.04836   0.88941   0.26455
C          C       0.42963   0.89364   0.54831   0.60661
C          C       0.73052   0.81194   0.88263  -0.20884
C          C       0.11570   0.52115   0.58125  -0.28823
C          C       0.02140   0.21277   0.90427  -0.21932
C          C       0.37806   0.99451   0.20494   0.00382
C          C       0.62014   0.50983   0.57455  -0.28955
C          C       0.15889   0.80625   0.03747  -0.20251
C          C       0.54871   0.34137   0.42612   0.26302
C          C       0.18602   0.63851   0.40936   0.25829
C          C       0.75920   0.23757   0.62692  -0.05982
C          C       0.01285   0.05526   0.89355   0.26814
C          C       0.65140   0.23745   0.46623  -0.05995
C          C       0.59491   0.14768   0.07915  -0.21468
C          C       0.57105   0.60749   0.04735   0.60706
C          C       0.02747   0.50572   0.77629   0.60754
C          C       0.83561   0.27341   0.96856  -0.07302
C          C       0.70093   0.46865   0.60676   0.26825
C          C       0.81023   0.36096   0.58885   0.25660
C          C       0.70386   0.96982   0.89193   0.26719
C          C       0.97629   0.78898   0.09578  -0.21867
C          C       0.97661   0.28966   0.40433  -0.21870
C          C       0.53459   0.20729   0.89895  -0.22330
C          C       0.23310   0.25332   0.63311  -0.06006
C          C       0.53765   0.54668   0.67473  -0.22126
C          C       0.62921   0.50272   0.77586   0.59238
C          C       0.64579   0.85527   0.39530   0.62203
C          C       0.57895   0.72307   0.41853  -0.07254
C          C       0.81252   0.86204   0.91046   0.25736
C          C       0.75946   0.73859   0.87346  -0.06048
C          C       0.59689   0.64729   0.41946  -0.21452
C          C       0.64576   0.81482   0.04174  -0.21076
C          C       0.69676   0.12050   0.10509   0.25934
C          C       0.29541   0.03123   0.10649   0.26859
C          C       0.53884   0.04678   0.82401  -0.22061
C          C       0.95097   0.76661   0.91836  -0.06447
C          C       0.65267   0.35552   0.10213   0.62520
C          C       0.44885   0.65851   0.57389   0.26490
C          C       0.97316   0.49481   0.22392   0.60317
C          C       0.83371   0.77010   0.53037  -0.07048
C          C       0.33415   0.22603   0.60663  -0.07912
C          C       0.46068   0.95339   0.17330  -0.22150
C          C       0.64435   0.31378   0.45802  -0.21124
C          C       0.34968   0.14446   0.60221   0.62251
C          C       0.35308   0.64588   0.89560   0.61986
C          C       0.78266   0.67071   0.36580  -0.22614
C          C       0.23298   0.75400   0.86635  -0.06288
C          C       0.56877   0.10611   0.45116   0.60984
C          C       0.34707   0.76247   0.53316  -0.06011
C          C       0.23888   0.76202   0.37231  -0.06234
C          C       0.01093   0.95227   0.16705  -0.22496
C          C       0.56602   0.18769   0.44035  -0.07496
C          C       0.45788   0.95225   0.10789   0.26700
C          C       0.07613   0.68210   0.05840  -0.09014
C          C       0.07598   0.16138   0.07176  -0.20871
C          C       0.41788   0.77808   0.91902  -0.07316
C          C       0.35309   0.18511   0.95693  -0.21073
C          C       0.29936   0.37857   0.60630   0.25883
C          C       0.07527   0.10117   0.45317   0.64619
C          C       0.88442   0.47916   0.41886  -0.28801
C          C       0.26906   0.18919   0.11653  -0.20787
C          C       0.16220   0.98435   0.81240  -0.22209
C          C       0.37574   0.99048   0.07366  -0.29147
C          C       0.52393   0.78320   0.59385  -0.06400
C          C       0.04788   0.23467   0.08188  -0.06502
C          C       0.76382   0.74664   0.36567  -0.06094
C          C       0.41880   0.27643   0.58096  -0.07258
C          C       0.01357   0.78847   0.59009  -0.05685
C          C       0.06344   0.33560   0.43293   0.26021
C          C       0.45832   0.45175   0.39051   0.26705
C          C       0.07592   0.60137   0.04541   0.64597
C          C       0.01517   0.28990   0.90848  -0.05658
C          C       0.53870   0.54793   0.60928   0.26549
C          C       0.62200   0.00560   0.79286   0.00207
C          C       0.69948   0.62134   0.39340   0.25800
C          C       0.98550   0.54823   0.66742  -0.22414
C          C       0.81272   0.51484   0.37651   0.27164
C          C       0.93544   0.98679   0.20808   0.00411
C          C       0.44916   0.15829   0.92495   0.26531
C          C       0.98430   0.04972   0.83034  -0.22543
C          C       0.07529   0.66049   0.42656  -0.21036
C          C       0.46145   0.45323   0.32511  -0.22060
C          C       0.89954   0.63659   0.88373   0.61310
C          C       0.83860   0.19668   0.96240  -0.20347
C          C       0.47553   0.71711   0.09336  -0.06371
C          C       0.29577   0.53078   0.39197   0.26735
C          C       0.70459   0.96720   0.82684  -0.22841
C          C       0.98447   0.71197   0.09215  -0.05619
C          C       0.83917   0.69352   0.53645  -0.20320
C          C       0.21535   0.32939   0.63342  -0.22635
C          C       0.83126   0.01520   0.18646  -0.21855
C          C       0.29625   0.53322   0.32694  -0.22905
C          C       0.11077   0.02238   0.91807  -0.28945
C          C       0.33451   0.72727   0.89275  -0.07734
C          C       0.18371   0.98628   0.87666   0.27299
C          C       0.95032   0.26617   0.58176  -0.06550
C          C       0.37581   0.48960   0.42474  -0.29056
C          C       0.76429   0.24505   0.13276  -0.05927
C          C       0.62053   0.50512   0.70587   0.00362
C          C       0.92396   0.32054   0.94208  -0.08851
C          C       0.37004   0.99697   0.27487   0.59421
C          C       0.88120   0.97823   0.08034  -0.28611
C          C       0.80809   0.01338   0.12235   0.27163
C          C       0.52268   0.28356   0.90570  -0.06502
C          C       0.34524   0.26123   0.96566  -0.06166
C          C       0.83703   0.51682   0.31256  -0.22191
C          C       0.04690   0.73382   0.41659  -0.06384
C          C       0.35369   0.68621   0.54167  -0.21130
C          C       0.53459   0.70680   0.60040  -0.22245
C          C       0.16364   0.48377   0.68757  -0.21915
C          C       0.01649   0.55371   0.60447   0.26575
C          C       0.37093   0.49700   0.22355   0.59431
C          C       0.94077   0.48748   0.29137   0.00794
C          C       0.29528   0.03324   0.17150  -0.23086
C          C       0.93359   0.16658   0.93186   0.26119
C          C       0.89881   0.13561   0.61635   0.61308
C          C       0.18749   0.48551   0.62357   0.27188
C          C       0.98428   0.21259   0.40726  -0.05679
C          C       0.43264   0.81210   0.55898  -0.07424
C          C       0.92118   0.81797   0.55662  -0.09085
C          C       0.02826   0.00568   0.72242   0.60765
C          C       0.06271   0.83555   0.06743   0.26114
C          C       0.01524   0.45253   0.33283  -0.22623
C          C       0.92063   0.89870   0.54364   0.64640
C          C       0.56775   0.68873   0.05901  -0.07530
C          C       0.54919   0.84199   0.07302   0.26403
C          C       0.98073   0.94638   0.10414   0.26552
C          C       0.16372   0.22894   0.46764  -0.07291
C          C       0.26808   0.68874   0.38170  -0.20858
C          C       0.10097   0.36476   0.11626   0.61381
C          C       0.15941   0.30568   0.46264  -0.20107
C          C       0.09978   0.86440   0.38225   0.61367
C          C       0.06007   0.51323   0.70885   0.00331
C          C       0.12809   0.78527   0.38968  -0.07133
C          C       0.02231   0.71153   0.59410  -0.21878
C          C       0.57906   0.22379   0.07983  -0.07050
C          C       0.46380   0.79340   0.09948  -0.22152
C          C       0.92468   0.40149   0.95473   0.64455
C          C       0.86995   0.21465   0.60917  -0.07134
O          O       0.51424   0.06362   0.41178  -0.57871
O          O       0.73193   0.90042   0.38406  -0.58551
O          O       0.89745   0.91871   0.48907  -0.52313
O          O       0.05713   0.41215   0.43764  -0.21880
O          O       0.45209   0.12560   0.58682  -0.58729
O          O       0.93705   0.08964   0.93419  -0.21897
O          O       0.09742   0.58131   0.99074  -0.52433
O          O       0.78682   0.93415   0.92691  -0.21118
O          O       0.21165   0.06700   0.07238  -0.21041
O          O       0.10895   0.50408   0.81613  -0.49940
O          O       0.42282   0.45193   0.18976  -0.52185
O          O       0.57742   0.04791   0.68907  -0.52028
O          O       0.29089   0.53693   0.07662  -0.77863
O          O       0.91675   0.50056   0.78694  -0.54417
O          O       0.07933  -0.00021   0.28577  -0.54422
O          O       0.09702   0.08097   0.50780  -0.52379
O          O       0.88684   0.99647   0.31510  -0.49567
O          O       0.89139   0.49653   0.18428  -0.49542
O          O       0.90315   0.42239   0.00913  -0.52449
O          O       0.62738   0.58477  -0.00019  -0.57874
O          O       0.71325   0.54554   0.40038  -0.21234
O          O       0.81280   0.58908   0.87914  -0.55411
O          O       0.94727   0.44787   0.90835  -0.60991
O          O       0.45207   0.58178   0.57508  -0.21657
O          O       0.81778   0.04493   0.43144  -0.74791
O          O       0.28150   0.95499   0.90189  -0.21250
O          O       0.00611   0.11921   0.61634  -0.57147
O          O       0.99375   0.38110   0.11768  -0.57050
O          O       0.70853   0.46357   0.92303  -0.77769
O          O       0.05287   0.55487   0.09158  -0.61286
O          O       0.00755   0.62158   0.88221  -0.57106
O          O       0.48094   0.43679   0.91393  -0.58179
O          O       0.69697   0.95206   0.70184  -0.55547
O          O       0.55304   0.37762   0.08528  -0.59022
O          O       0.18759   0.91117   0.37750  -0.55556
O          O       0.26289   0.09958   0.61292  -0.58508
O          O       0.70889   0.04453   0.09817  -0.21469
O          O       0.57756   0.54787   0.80963  -0.51965
O          O       0.08380   0.49961   0.21294  -0.54379
O          O       0.30173   0.04750   0.29572  -0.55870
O          O       0.37115   0.41494   0.00035  -0.57946
O          O       0.54276   0.87389   0.40992  -0.58617
O          O       0.54401   0.41804   0.42533  -0.21787
O          O       0.10957   0.00357   0.68254  -0.50069
O          O       0.45351   0.08165   0.92353  -0.21666
O          O       0.18864   0.41156   0.12087  -0.55513
O          O       0.05642   0.91215   0.06328  -0.21884
O          O       0.28971   0.03646   0.42136  -0.77545
O          O       0.30307   0.54770   0.20266  -0.55488
O          O       0.51508   0.56410   0.08568  -0.58071
O          O       0.54340   0.91852   0.07307  -0.21755
O          O       0.26773   0.59959   0.88572  -0.58725
O          O       0.45760   0.62872   0.90858  -0.58337
O          O       0.70833   0.96329   0.57728  -0.77785
O          O       0.81138   0.08883   0.62217  -0.55586
O          O       0.74194   0.39756   0.11474  -0.58332
O          O       0.17751   0.45551   0.93292  -0.74605
O          O       0.81750   0.54545   0.06982  -0.74824
O          O       0.42233   0.95211   0.30863  -0.51860
O          O       0.28666   0.45449   0.59965  -0.21257
O          O       0.21185   0.56645   0.42605  -0.21087
O          O       0.17726   0.95452   0.56540  -0.74896
O          O       0.94441   0.94514   0.58963  -0.61009
O          O       0.91771   0.00016   0.71167  -0.54646
O          O       0.37415   0.91822   0.50112  -0.58128
O          O       0.99254   0.88098   0.38082  -0.57395
O          O       0.48470   0.93595   0.58765  -0.57736
O          O       0.78300   0.43269   0.57155  -0.21038
O          O       0.62342   0.08171   0.49867  -0.58178
O          O       0.69714   0.45210   0.79695  -0.55585
O          O       0.94285   0.58802   0.56245  -0.21866
O          O       0.05183   0.05500   0.40692  -0.61203

