data_crystal

_audit_creation_method 'AiiDA-DDEC plugin'

_cell_length_a         9.16233
_cell_length_b        19.35122
_cell_length_c        19.35122

_cell_angle_alpha     90.00000
_cell_angle_beta     90.00000
_cell_angle_gamma     90.00000

_symmetry_space_group_name_Hall 'P 1'
_symmetry_space_group_name_H-M  'P 1'

loop_
_symmetry_equiv_pos_as_xyz
 'x,y,z'

loop_
_atom_site_label
_atom_site_type_symbol
_atom_site_fract_x
_atom_site_fract_y
_atom_site_fract_z
_atom_site_charge
Ba         Ba      0.76611   0.82163   0.64321   1.54660
Ba         Ba      0.76595   0.68987   0.87185   1.45346
Ba         Ba      0.76611   0.17837   0.35679   1.54660
Ba         Ba      0.76595   0.31013   0.12815   1.45332
Ba         Ba      0.76611   0.35679   0.82163   1.54658
Ba         Ba      0.76595   0.12815   0.68987   1.45345
Ba         Ba      0.76611   0.64321   0.17837   1.54659
Ba         Ba      0.76595   0.87185   0.31013   1.45333
Ba         Ba      0.26592   0.32149   0.85691   1.54565
Ba         Ba      0.26745   0.18921   0.62962   1.45434
Ba         Ba      0.26592   0.67851   0.14308   1.54566
Ba         Ba      0.26746   0.81078   0.37038   1.45436
Ba         Ba      0.26592   0.85691   0.67851   1.54564
Ba         Ba      0.26746   0.62962   0.81078   1.45429
Ba         Ba      0.26592   0.14308   0.32149   1.54564
Ba         Ba      0.26746   0.37038   0.18921   1.45449
H          H       0.66330   0.89179   0.00559   0.06588
H          H       0.75571   0.81543   0.03054   0.09299
H          H       0.47155   0.79782   0.03585   0.09841
H          H       0.43172   0.73827   0.96989   0.12689
H          H       0.44721   0.87492   0.92475   0.09052
H          H       0.59906   0.87349   0.86799   0.10946
H          H       0.91399   0.90500   0.97197   0.06264
H          H       0.81154   0.89315   0.89574   0.08295
H          H       0.10747   0.78833   0.84855   0.12154
H          H       0.08214   0.87662   0.86372   0.09921
H          H       0.97396   0.77915   0.02377   0.11631
H          H       0.12530   0.82231   0.98697   0.09338
H          H       0.66330   0.10821   0.99440   0.06605
H          H       0.75571   0.18456   0.96946   0.09303
H          H       0.47155   0.20218   0.96415   0.09865
H          H       0.43172   0.26172   0.03011   0.12673
H          H       0.44721   0.12508   0.07525   0.09069
H          H       0.59906   0.12651   0.13201   0.10950
H          H       0.91399   0.09500   0.02803   0.06278
H          H       0.81154   0.10684   0.10426   0.08297
H          H       0.10747   0.21167   0.15145   0.12144
H          H       0.08214   0.12337   0.13627   0.09935
H          H       0.97396   0.22084   0.97623   0.11636
H          H       0.12530   0.17768   0.01303   0.09349
H          H       0.66330   0.99440   0.89179   0.06593
H          H       0.75571   0.96946   0.81543   0.09308
H          H       0.47155   0.96415   0.79782   0.09848
H          H       0.43172   0.03011   0.73827   0.12671
H          H       0.44721   0.07525   0.87492   0.09057
H          H       0.59906   0.13201   0.87349   0.10937
H          H       0.91399   0.02803   0.90500   0.06270
H          H       0.81154   0.10426   0.89315   0.08282
H          H       0.10747   0.15145   0.78833   0.12158
H          H       0.08214   0.13627   0.87662   0.09922
H          H       0.97396   0.97623   0.77915   0.11641
H          H       0.12530   0.01303   0.82231   0.09337
H          H       0.66330   0.00559   0.10821   0.06600
H          H       0.75571   0.03054   0.18456   0.09294
H          H       0.47155   0.03585   0.20218   0.09850
H          H       0.43172   0.96989   0.26172   0.12678
H          H       0.44721   0.92475   0.12508   0.09058
H          H       0.59906   0.86799   0.12651   0.10952
H          H       0.91399   0.97197   0.09500   0.06274
H          H       0.81154   0.89574   0.10684   0.08303
H          H       0.10747   0.84855   0.21167   0.12145
H          H       0.08214   0.86372   0.12337   0.09934
H          H       0.97396   0.02377   0.22084   0.11630
H          H       0.12530   0.98697   0.17768   0.09348
H          H       0.15937   0.39050   0.49489   0.06585
H          H       0.25340   0.31464   0.47004   0.09246
H          H       0.97207   0.29632   0.46476   0.09647
H          H       0.93047   0.23701   0.53087   0.12738
H          H       0.94474   0.37264   0.57711   0.08996
H          H       0.09684   0.37132   0.63380   0.10985
H          H       0.40979   0.40542   0.52830   0.06227
H          H       0.30818   0.39279   0.60467   0.08250
H          H       0.60845   0.29031   0.65098   0.12510
H          H       0.58038   0.37840   0.63528   0.09682
H          H       0.47383   0.27962   0.47628   0.11772
H          H       0.62407   0.32326   0.51321   0.09369
H          H       0.15937   0.60950   0.50511   0.06596
H          H       0.25340   0.68536   0.52996   0.09217
H          H       0.97207   0.70368   0.53524   0.09649
H          H       0.93047   0.76299   0.46913   0.12742
H          H       0.94474   0.62736   0.42288   0.08999
H          H       0.09684   0.62868   0.36620   0.11002
H          H       0.40979   0.59458   0.47169   0.06225
H          H       0.30818   0.60721   0.39532   0.08267
H          H       0.60845   0.70968   0.34902   0.12503
H          H       0.58038   0.62160   0.36472   0.09687
H          H       0.47383   0.72038   0.52372   0.11765
H          H       0.62407   0.67674   0.48679   0.09382
H          H       0.15937   0.49489   0.60950   0.06603
H          H       0.25340   0.47004   0.68536   0.09234
H          H       0.97207   0.46476   0.70368   0.09655
H          H       0.93047   0.53087   0.76299   0.12735
H          H       0.94474   0.57711   0.62736   0.09010
H          H       0.09684   0.63380   0.62868   0.10993
H          H       0.40979   0.52830   0.59458   0.06232
H          H       0.30818   0.60467   0.60721   0.08256
H          H       0.60845   0.65098   0.70968   0.12501
H          H       0.58038   0.63528   0.62160   0.09688
H          H       0.47383   0.47628   0.72038   0.11776
H          H       0.62407   0.51321   0.67674   0.09379
H          H       0.15937   0.50511   0.39050   0.06586
H          H       0.25340   0.52996   0.31464   0.09233
H          H       0.97207   0.53524   0.29632   0.09643
H          H       0.93047   0.46913   0.23701   0.12744
H          H       0.94474   0.42288   0.37264   0.08990
H          H       0.09684   0.36620   0.37132   0.10995
H          H       0.40979   0.47169   0.40542   0.06218
H          H       0.30818   0.39532   0.39279   0.08264
H          H       0.60845   0.34902   0.29031   0.12520
H          H       0.58038   0.36472   0.37840   0.09678
H          H       0.47383   0.52372   0.27962   0.11766
H          H       0.62407   0.48679   0.32326   0.09367
C          C       0.71814   0.84495   0.98548  -0.09404
C          C       0.52250   0.76329   0.99726  -0.25096
C          C       0.60372   0.70608   0.03603   0.62198
C          C       0.52620   0.84056   0.89869  -0.22978
C          C       0.44269   0.79710   0.84549   0.63451
C          C       0.84936   0.86677   0.94243  -0.09553
C          C       0.02289   0.82722   0.85814  -0.24060
C          C       0.93064   0.83050   0.79245   0.61340
C          C       0.03742   0.78474   0.97593  -0.23416
C          C       0.10896   0.71389   0.96418   0.63336
C          C       0.71814   0.15505   0.01452  -0.09395
C          C       0.52250   0.23671   0.00273  -0.25097
C          C       0.60372   0.29392   0.96396   0.62187
C          C       0.52620   0.15944   0.10130  -0.22996
C          C       0.44269   0.20290   0.15450   0.63478
C          C       0.84936   0.13322   0.05757  -0.09551
C          C       0.02289   0.17278   0.14185  -0.24052
C          C       0.93064   0.16949   0.20755   0.61324
C          C       0.03742   0.21526   0.02407  -0.23407
C          C       0.10896   0.28611   0.03582   0.63359
C          C       0.71814   0.01452   0.84495  -0.09407
C          C       0.52250   0.00273   0.76329  -0.25079
C          C       0.60372   0.96396   0.70608   0.62175
C          C       0.52620   0.10130   0.84056  -0.22983
C          C       0.44269   0.15450   0.79710   0.63466
C          C       0.84936   0.05757   0.86677  -0.09548
C          C       0.02289   0.14185   0.82722  -0.24062
C          C       0.93064   0.20755   0.83050   0.61343
C          C       0.03742   0.02407   0.78474  -0.23399
C          C       0.10896   0.03582   0.71389   0.63342
C          C       0.71814   0.98548   0.15505  -0.09402
C          C       0.52250   0.99726   0.23671  -0.25091
C          C       0.60372   0.03603   0.29392   0.62209
C          C       0.52620   0.89869   0.15944  -0.22979
C          C       0.44269   0.84549   0.20290   0.63469
C          C       0.84936   0.94243   0.13322  -0.09557
C          C       0.02289   0.85814   0.17278  -0.24057
C          C       0.93064   0.79245   0.16949   0.61318
C          C       0.03742   0.97593   0.21526  -0.23417
C          C       0.10896   0.96418   0.28611   0.63351
C          C       0.21558   0.34406   0.51513  -0.09388
C          C       0.02175   0.26179   0.50368  -0.25323
C          C       0.10325   0.20436   0.46539   0.62411
C          C       0.02461   0.33837   0.60272  -0.22914
C          C       0.94242   0.29325   0.65513   0.63391
C          C       0.34653   0.36672   0.55789  -0.09488
C          C       0.52274   0.32868   0.64156  -0.24357
C          C       0.43229   0.33200   0.70768   0.61209
C          C       0.53653   0.28551   0.52429  -0.23651
C          C       0.60908   0.21509   0.53684   0.63557
C          C       0.21558   0.65593   0.48487  -0.09375
C          C       0.02175   0.73821   0.49632  -0.25334
C          C       0.10325   0.79563   0.53461   0.62425
C          C       0.02461   0.66162   0.39728  -0.22927
C          C       0.94242   0.70675   0.34487   0.63399
C          C       0.34653   0.63328   0.44211  -0.09475
C          C       0.52274   0.67132   0.35844  -0.24340
C          C       0.43229   0.66799   0.29232   0.61205
C          C       0.53653   0.71449   0.47571  -0.23678
C          C       0.60908   0.78491   0.46315   0.63570
C          C       0.21558   0.51513   0.65593  -0.09392
C          C       0.02175   0.50368   0.73821  -0.25328
C          C       0.10325   0.46539   0.79563   0.62416
C          C       0.02461   0.60272   0.66162  -0.22927
C          C       0.94242   0.65513   0.70675   0.63397
C          C       0.34653   0.55789   0.63328  -0.09461
C          C       0.52274   0.64156   0.67132  -0.24343
C          C       0.43229   0.70768   0.66799   0.61204
C          C       0.53653   0.52429   0.71449  -0.23659
C          C       0.60908   0.53684   0.78491   0.63581
C          C       0.21558   0.48487   0.34406  -0.09391
C          C       0.02175   0.49632   0.26179  -0.25327
C          C       0.10325   0.53461   0.20436   0.62420
C          C       0.02461   0.39728   0.33837  -0.22920
C          C       0.94242   0.34487   0.29325   0.63377
C          C       0.34653   0.44211   0.36672  -0.09494
C          C       0.52274   0.35844   0.32868  -0.24356
C          C       0.43229   0.29232   0.33200   0.61199
C          C       0.53653   0.47571   0.28551  -0.23668
C          C       0.60908   0.46315   0.21509   0.63561
N          N       0.61463   0.80062   0.94771  -0.12289
N          N       0.94053   0.80821   0.92017  -0.12303
N          N       0.61463   0.19938   0.05229  -0.12299
N          N       0.94053   0.19179   0.07983  -0.12327
N          N       0.61463   0.05229   0.80061  -0.12282
N          N       0.94053   0.07983   0.80821  -0.12326
N          N       0.61463   0.94771   0.19938  -0.12282
N          N       0.94053   0.92017   0.19179  -0.12310
N          N       0.11352   0.29926   0.55320  -0.12061
N          N       0.43946   0.30877   0.58007  -0.12077
N          N       0.11352   0.70074   0.44680  -0.12072
N          N       0.43946   0.69123   0.41993  -0.12090
N          N       0.11352   0.55320   0.70074  -0.12071
N          N       0.43946   0.58007   0.69123  -0.12108
N          N       0.11352   0.44680   0.29926  -0.12061
N          N       0.43946   0.41993   0.30877  -0.12071
O          O       0.72568   0.68390   0.01397  -0.63335
O          O       0.54107   0.68333   0.09045  -0.69413
O          O       0.47385   0.73289   0.84039  -0.66176
O          O       0.34878   0.82939   0.81002  -0.64928
O          O       0.79903   0.80928   0.79263  -0.64207
O          O       0.99359   0.85459   0.73891  -0.66634
O          O       0.20791   0.69741   0.00675  -0.65561
O          O       0.06629   0.67708   0.91323  -0.66989
O          O       0.72568   0.31610   0.98603  -0.63342
O          O       0.54107   0.31666   0.90955  -0.69405
O          O       0.47385   0.26710   0.15960  -0.66211
O          O       0.34878   0.17061   0.18997  -0.64929
O          O       0.79903   0.19072   0.20736  -0.64201
O          O       0.99359   0.14541   0.26109  -0.66630
O          O       0.20791   0.30258   0.99324  -0.65570
O          O       0.06629   0.32291   0.08677  -0.67027
O          O       0.72568   0.98603   0.68390  -0.63329
O          O       0.54107   0.90955   0.68333  -0.69393
O          O       0.47385   0.15960   0.73289  -0.66184
O          O       0.34878   0.18997   0.82939  -0.64943
O          O       0.79903   0.20736   0.80927  -0.64209
O          O       0.99359   0.26109   0.85459  -0.66642
O          O       0.20791   0.99324   0.69741  -0.65558
O          O       0.06629   0.08677   0.67708  -0.67000
O          O       0.72568   0.01397   0.31610  -0.63348
O          O       0.54107   0.09045   0.31666  -0.69429
O          O       0.47385   0.84039   0.26710  -0.66206
O          O       0.34878   0.81002   0.17061  -0.64921
O          O       0.79903   0.79263   0.19072  -0.64200
O          O       0.99359   0.73891   0.14541  -0.66617
O          O       0.20791   0.00675   0.30258  -0.65575
O          O       0.06629   0.91323   0.32291  -0.67007
O          O       0.22227   0.18058   0.48911  -0.63035
O          O       0.04348   0.18330   0.40956  -0.69699
O          O       0.97748   0.22947   0.65971  -0.65982
O          O       0.84513   0.32326   0.69046  -0.64926
O          O       0.30177   0.30928   0.70819  -0.64510
O          O       0.49535   0.35762   0.76055  -0.66356
O          O       0.70473   0.19717   0.49323  -0.65403
O          O       0.57002   0.18010   0.58973  -0.67411
O          O       0.22227   0.81941   0.51088  -0.63043
O          O       0.04348   0.81670   0.59043  -0.69717
O          O       0.97748   0.77053   0.34029  -0.65995
O          O       0.84513   0.67674   0.30953  -0.64911
O          O       0.30177   0.69071   0.29181  -0.64516
O          O       0.49535   0.64238   0.23945  -0.66335
O          O       0.70473   0.80282   0.50677  -0.65426
O          O       0.57002   0.81989   0.41027  -0.67408
O          O       0.22227   0.48911   0.81941  -0.63044
O          O       0.04348   0.40956   0.81670  -0.69703
O          O       0.97748   0.65971   0.77053  -0.65996
O          O       0.84513   0.69046   0.67674  -0.64920
O          O       0.30177   0.70819   0.69071  -0.64512
O          O       0.49535   0.76055   0.64238  -0.66347
O          O       0.70473   0.49323   0.80282  -0.65414
O          O       0.57002   0.58973   0.81989  -0.67436
O          O       0.22227   0.51088   0.18058  -0.63036
O          O       0.04348   0.59043   0.18330  -0.69711
O          O       0.97748   0.34029   0.22947  -0.65972
O          O       0.84513   0.30953   0.32326  -0.64913
O          O       0.30177   0.29181   0.30928  -0.64507
O          O       0.49535   0.23945   0.35762  -0.66342
O          O       0.70473   0.50677   0.19717  -0.65417
O          O       0.57002   0.41027   0.18010  -0.67395

