data_crystal

_audit_creation_method 'AiiDA-DDEC plugin'

_cell_length_a        16.93832
_cell_length_b        16.59189
_cell_length_c        32.98933

_cell_angle_alpha     90.00000
_cell_angle_beta     90.00000
_cell_angle_gamma     89.92540

_symmetry_space_group_name_Hall 'P 1'
_symmetry_space_group_name_H-M  'P 1'

loop_
_symmetry_equiv_pos_as_xyz
 'x,y,z'

loop_
_atom_site_label
_atom_site_type_symbol
_atom_site_fract_x
_atom_site_fract_y
_atom_site_fract_z
_atom_site_charge
Al         Al      0.37008   0.62842   0.09690   1.66168
Al         Al      0.62992   0.37158   0.09690   1.66183
Al         Al      0.13001   0.12845   0.40288   1.66441
Al         Al      0.86999   0.87155   0.40288   1.66447
Al         Al      0.62992   0.37158   0.90310   1.66173
Al         Al      0.37008   0.62842   0.90310   1.66179
Al         Al      0.86999   0.87155   0.59712   1.66443
Al         Al      0.13001   0.12845   0.59712   1.66438
Al         Al      0.34647   0.71062   0.00000   1.66893
Al         Al      0.65353   0.28938   0.00000   1.66908
Al         Al      0.15357   0.21066   0.50000   1.66837
Al         Al      0.84643   0.78935   0.50000   1.66864
Al         Al      0.00000   0.00000   0.37080   1.64941
Al         Al      0.50000   0.50000   0.12951   1.64413
Al         Al      0.00000   0.00000   0.62920   1.64924
Al         Al      0.50000   0.50000   0.87049   1.64409
H          H       0.41963   0.59745   0.03206   0.42354
H          H       0.29142   0.77835   0.15787   0.11528
H          H       0.29841   0.92601   0.05012   0.12036
H          H       0.29323   0.90111   0.20045   0.12112
H          H       0.29812   0.04888   0.09283   0.12075
H          H       0.35133   0.11795   0.24214   0.12813
H          H       0.15349   0.99269   0.18972   0.12586
H          H       0.25159   0.20743   0.17931   0.12354
H          H       0.44071   0.05047   0.14144   0.12028
H          H       0.28360   0.11839   0.30927   0.12478
H          H       0.08533   0.99428   0.25686   0.12524
H          H       0.33035   0.32682   0.15823   0.11638
H          H       0.52094   0.16959   0.12206   0.11386
H          H       0.10994   0.98353   0.41314   0.41762
H          H       0.58037   0.40256   0.03206   0.42357
H          H       0.70858   0.22165   0.15787   0.11533
H          H       0.70159   0.07400   0.05012   0.12039
H          H       0.70677   0.09890   0.20045   0.12116
H          H       0.70188   0.95112   0.09283   0.12065
H          H       0.64867   0.88205   0.24214   0.12807
H          H       0.84651   0.00732   0.18972   0.12591
H          H       0.74841   0.79257   0.17931   0.12353
H          H       0.55929   0.94953   0.14144   0.12039
H          H       0.71640   0.88162   0.30927   0.12472
H          H       0.91467   0.00572   0.25686   0.12531
H          H       0.66965   0.67319   0.15823   0.11617
H          H       0.47906   0.83042   0.12206   0.11385
H          H       0.89006   0.01647   0.41314   0.41784
H          H       0.08051   0.09765   0.46775   0.42341
H          H       0.20857   0.27805   0.34189   0.11586
H          H       0.20166   0.42528   0.44979   0.11785
H          H       0.20701   0.40103   0.29941   0.12158
H          H       0.20213   0.54844   0.40722   0.12011
H          H       0.14847   0.61780   0.25804   0.12481
H          H       0.34662   0.49228   0.31026   0.12860
H          H       0.24848   0.70714   0.32067   0.12597
H          H       0.05950   0.55045   0.35844   0.11969
H          H       0.21619   0.61877   0.19088   0.12437
H          H       0.41478   0.49427   0.24307   0.12329
H          H       0.16955   0.82665   0.34178   0.11668
H          H       0.97905   0.66972   0.37778   0.11390
H          H       0.39030   0.48365   0.08651   0.41645
H          H       0.91949   0.90235   0.46775   0.42350
H          H       0.79143   0.72195   0.34189   0.11597
H          H       0.79835   0.57472   0.44979   0.11783
H          H       0.79300   0.59898   0.29941   0.12159
H          H       0.79787   0.45156   0.40722   0.12003
H          H       0.85153   0.38220   0.25804   0.12478
H          H       0.65338   0.50772   0.31026   0.12864
H          H       0.75152   0.29286   0.32067   0.12590
H          H       0.94050   0.44955   0.35844   0.11984
H          H       0.78381   0.38123   0.19088   0.12437
H          H       0.58522   0.50574   0.24307   0.12330
H          H       0.83045   0.17335   0.34178   0.11667
H          H       0.02095   0.33028   0.37778   0.11395
H          H       0.60970   0.51636   0.08651   0.41655
H          H       0.58037   0.40256   0.96794   0.42357
H          H       0.70858   0.22165   0.84213   0.11541
H          H       0.70159   0.07400   0.94988   0.12023
H          H       0.70677   0.09890   0.79955   0.12133
H          H       0.70188   0.95112   0.90717   0.12062
H          H       0.64867   0.88205   0.75786   0.12806
H          H       0.84651   0.00732   0.81028   0.12586
H          H       0.74841   0.79257   0.82069   0.12357
H          H       0.55929   0.94953   0.85856   0.12032
H          H       0.71640   0.88162   0.69073   0.12479
H          H       0.91467   0.00572   0.74314   0.12539
H          H       0.66965   0.67319   0.84177   0.11625
H          H       0.47906   0.83042   0.87794   0.11386
H          H       0.89006   0.01647   0.58686   0.41784
H          H       0.41963   0.59745   0.96794   0.42352
H          H       0.29142   0.77835   0.84213   0.11531
H          H       0.29841   0.92601   0.94988   0.12024
H          H       0.29323   0.90111   0.79955   0.12125
H          H       0.29812   0.04888   0.90717   0.12076
H          H       0.35133   0.11795   0.75786   0.12815
H          H       0.15349   0.99269   0.81028   0.12579
H          H       0.25159   0.20743   0.82069   0.12360
H          H       0.44071   0.05047   0.85856   0.12023
H          H       0.28360   0.11839   0.69073   0.12488
H          H       0.08533   0.99428   0.74314   0.12528
H          H       0.33035   0.32682   0.84177   0.11636
H          H       0.52094   0.16959   0.87794   0.11385
H          H       0.10994   0.98353   0.58686   0.41757
H          H       0.91949   0.90235   0.53225   0.42353
H          H       0.79143   0.72195   0.65811   0.11586
H          H       0.79835   0.57472   0.55021   0.11797
H          H       0.79300   0.59898   0.70058   0.12137
H          H       0.79787   0.45156   0.59278   0.12007
H          H       0.85153   0.38220   0.74195   0.12480
H          H       0.65338   0.50772   0.68974   0.12868
H          H       0.75152   0.29286   0.67933   0.12582
H          H       0.94050   0.44955   0.64156   0.11988
H          H       0.78381   0.38123   0.80912   0.12424
H          H       0.58522   0.50574   0.75692   0.12330
H          H       0.83045   0.17335   0.65822   0.11667
H          H       0.02095   0.33028   0.62222   0.11399
H          H       0.60970   0.51636   0.91349   0.41652
H          H       0.08051   0.09765   0.53225   0.42345
H          H       0.20857   0.27805   0.65811   0.11581
H          H       0.20166   0.42528   0.55021   0.11798
H          H       0.20701   0.40103   0.70058   0.12141
H          H       0.20213   0.54844   0.59278   0.12015
H          H       0.14847   0.61780   0.74195   0.12483
H          H       0.34662   0.49228   0.68974   0.12867
H          H       0.24848   0.70714   0.67933   0.12591
H          H       0.05950   0.55045   0.64156   0.11969
H          H       0.21619   0.61877   0.80912   0.12425
H          H       0.41478   0.49427   0.75692   0.12325
H          H       0.16955   0.82665   0.65822   0.11674
H          H       0.97905   0.66972   0.62222   0.11393
H          H       0.39030   0.48365   0.91349   0.41643
C          C       0.29805   0.77161   0.07672   0.56609
C          C       0.29497   0.84297   0.10082  -0.09567
C          C       0.29229   0.83763   0.14385  -0.08313
C          C       0.29748   0.92104   0.08297  -0.09235
C          C       0.29324   0.90623   0.16760  -0.19364
C          C       0.29706   0.98957   0.10681  -0.19563
C          C       0.29515   0.98357   0.14960   0.15662
C          C       0.25675   0.05514   0.21168   0.17348
C          C       0.34112   0.12128   0.16179   0.16586
C          C       0.29314   0.09122   0.24558  -0.19031
C          C       0.18150   0.01989   0.21602  -0.18639
C          C       0.31032   0.19992   0.16653  -0.19158
C          C       0.41708   0.11103   0.14496  -0.18856
C          C       0.25545   0.09148   0.28291  -0.07953
C          C       0.14377   0.02051   0.25334  -0.08036
C          C       0.35425   0.26634   0.15482  -0.08261
C          C       0.46147   0.17735   0.13385  -0.08005
C          C       0.18020   0.05607   0.28743  -0.08445
C          C       0.43087   0.25647   0.13833  -0.09747
C          C       0.14015   0.05729   0.32664   0.60666
C          C       0.47833   0.32487   0.12650   0.60085
C          C       0.70195   0.22839   0.07672   0.56598
C          C       0.70503   0.15704   0.10082  -0.09555
C          C       0.70771   0.16238   0.14385  -0.08309
C          C       0.70252   0.07896   0.08297  -0.09251
C          C       0.70676   0.09378   0.16760  -0.19367
C          C       0.70294   0.01043   0.10681  -0.19559
C          C       0.70485   0.01644   0.14960   0.15671
C          C       0.74325   0.94487   0.21168   0.17350
C          C       0.65888   0.87873   0.16179   0.16587
C          C       0.70686   0.90878   0.24558  -0.19040
C          C       0.81850   0.98011   0.21602  -0.18646
C          C       0.68968   0.80008   0.16653  -0.19145
C          C       0.58292   0.88897   0.14496  -0.18847
C          C       0.74455   0.90852   0.28291  -0.07953
C          C       0.85623   0.97949   0.25334  -0.08026
C          C       0.64575   0.73366   0.15482  -0.08256
C          C       0.53853   0.82266   0.13385  -0.08013
C          C       0.81980   0.94393   0.28743  -0.08446
C          C       0.56913   0.74353   0.13833  -0.09751
C          C       0.85985   0.94272   0.32664   0.60659
C          C       0.52167   0.67513   0.12650   0.60086
C          C       0.20199   0.27124   0.42306   0.56378
C          C       0.20507   0.34258   0.39899  -0.09133
C          C       0.20776   0.33731   0.35595  -0.08457
C          C       0.20261   0.42056   0.41693  -0.09191
C          C       0.20690   0.40601   0.33227  -0.19429
C          C       0.20309   0.48917   0.39317  -0.19462
C          C       0.20500   0.48327   0.35038   0.15562
C          C       0.24334   0.55495   0.28837   0.17293
C          C       0.15906   0.62113   0.33825   0.16398
C          C       0.20675   0.59117   0.25454  -0.18684
C          C       0.31863   0.51966   0.28398  -0.18894
C          C       0.18981   0.69971   0.33351  -0.19239
C          C       0.08306   0.61100   0.35501  -0.18716
C          C       0.24437   0.59169   0.21720  -0.07873
C          C       0.35629   0.52051   0.24666  -0.07733
C          C       0.14586   0.76617   0.34526  -0.08298
C          C       0.03860   0.67737   0.36610  -0.07987
C          C       0.31971   0.55631   0.21264  -0.08659
C          C       0.06925   0.75641   0.36171  -0.09735
C          C       0.35991   0.55762   0.17350   0.60749
C          C       0.02167   0.82486   0.37349   0.60070
C          C       0.79801   0.72876   0.42306   0.56373
C          C       0.79494   0.65742   0.39899  -0.09136
C          C       0.79224   0.66270   0.35595  -0.08457
C          C       0.79739   0.57945   0.41693  -0.09191
C          C       0.79310   0.59400   0.33227  -0.19419
C          C       0.79691   0.51083   0.39317  -0.19465
C          C       0.79500   0.51673   0.35038   0.15551
C          C       0.75666   0.44505   0.28837   0.17272
C          C       0.84095   0.37887   0.33825   0.16392
C          C       0.79325   0.40884   0.25454  -0.18676
C          C       0.68137   0.48034   0.28398  -0.18890
C          C       0.81019   0.30030   0.33351  -0.19223
C          C       0.91694   0.38901   0.35501  -0.18712
C          C       0.75563   0.40831   0.21720  -0.07869
C          C       0.64371   0.47949   0.24666  -0.07731
C          C       0.85414   0.23383   0.34526  -0.08330
C          C       0.96140   0.32263   0.36610  -0.07988
C          C       0.68029   0.44369   0.21264  -0.08668
C          C       0.93075   0.24360   0.36171  -0.09732
C          C       0.64009   0.44239   0.17350   0.60744
C          C       0.97833   0.17514   0.37349   0.60077
C          C       0.70195   0.22839   0.92328   0.56602
C          C       0.70503   0.15704   0.89918  -0.09568
C          C       0.70771   0.16238   0.85615  -0.08300
C          C       0.70252   0.07896   0.91702  -0.09247
C          C       0.70676   0.09378   0.83240  -0.19372
C          C       0.70294   0.01043   0.89319  -0.19567
C          C       0.70485   0.01644   0.85040   0.15677
C          C       0.74325   0.94487   0.78832   0.17346
C          C       0.65888   0.87873   0.83821   0.16579
C          C       0.70686   0.90878   0.75442  -0.19043
C          C       0.81850   0.98011   0.78398  -0.18660
C          C       0.68968   0.80008   0.83347  -0.19138
C          C       0.58292   0.88897   0.85504  -0.18836
C          C       0.74455   0.90852   0.71709  -0.07940
C          C       0.85623   0.97949   0.74666  -0.08033
C          C       0.64575   0.73366   0.84518  -0.08269
C          C       0.53853   0.82266   0.86615  -0.08030
C          C       0.81980   0.94393   0.71257  -0.08429
C          C       0.56913   0.74353   0.86166  -0.09737
C          C       0.85985   0.94272   0.67336   0.60637
C          C       0.52167   0.67513   0.87350   0.60094
C          C       0.29805   0.77161   0.92328   0.56608
C          C       0.29497   0.84297   0.89918  -0.09579
C          C       0.29229   0.83763   0.85615  -0.08297
C          C       0.29748   0.92104   0.91702  -0.09238
C          C       0.29324   0.90623   0.83240  -0.19366
C          C       0.29706   0.98957   0.89319  -0.19570
C          C       0.29515   0.98357   0.85040   0.15665
C          C       0.25675   0.05514   0.78832   0.17353
C          C       0.34112   0.12128   0.83821   0.16581
C          C       0.29314   0.09122   0.75442  -0.19042
C          C       0.18150   0.01989   0.78398  -0.18661
C          C       0.31032   0.19992   0.83347  -0.19156
C          C       0.41708   0.11103   0.85504  -0.18839
C          C       0.25545   0.09148   0.71709  -0.07946
C          C       0.14377   0.02051   0.74666  -0.08035
C          C       0.35425   0.26634   0.84518  -0.08261
C          C       0.46147   0.17735   0.86615  -0.08023
C          C       0.18020   0.05607   0.71257  -0.08432
C          C       0.43087   0.25647   0.86166  -0.09746
C          C       0.14015   0.05729   0.67336   0.60649
C          C       0.47833   0.32487   0.87350   0.60095
C          C       0.79801   0.72876   0.57694   0.56379
C          C       0.79494   0.65742   0.60101  -0.09145
C          C       0.79224   0.66270   0.64405  -0.08455
C          C       0.79739   0.57945   0.58307  -0.09178
C          C       0.79310   0.59400   0.66773  -0.19411
C          C       0.79691   0.51083   0.60682  -0.19468
C          C       0.79500   0.51673   0.64962   0.15543
C          C       0.75666   0.44505   0.71163   0.17260
C          C       0.84095   0.37887   0.66175   0.16387
C          C       0.79325   0.40884   0.74545  -0.18681
C          C       0.68137   0.48034   0.71602  -0.18868
C          C       0.81019   0.30030   0.66649  -0.19219
C          C       0.91694   0.38901   0.64499  -0.18715
C          C       0.75563   0.40831   0.78279  -0.07870
C          C       0.64371   0.47949   0.75334  -0.07741
C          C       0.85414   0.23383   0.65474  -0.08333
C          C       0.96140   0.32263   0.63390  -0.07985
C          C       0.68029   0.44369   0.78736  -0.08671
C          C       0.93075   0.24360   0.63829  -0.09725
C          C       0.64009   0.44239   0.82650   0.60755
C          C       0.97833   0.17514   0.62651   0.60074
C          C       0.20199   0.27124   0.57694   0.56390
C          C       0.20507   0.34258   0.60101  -0.09147
C          C       0.20776   0.33731   0.64405  -0.08456
C          C       0.20261   0.42056   0.58307  -0.09185
C          C       0.20690   0.40601   0.66773  -0.19426
C          C       0.20309   0.48917   0.60682  -0.19456
C          C       0.20500   0.48327   0.64962   0.15557
C          C       0.24334   0.55495   0.71163   0.17272
C          C       0.15906   0.62113   0.66175   0.16391
C          C       0.20675   0.59117   0.74545  -0.18689
C          C       0.31863   0.51966   0.71602  -0.18881
C          C       0.18981   0.69971   0.66649  -0.19232
C          C       0.08306   0.61100   0.64499  -0.18710
C          C       0.24437   0.59169   0.78279  -0.07864
C          C       0.35629   0.52051   0.75334  -0.07727
C          C       0.14586   0.76617   0.65474  -0.08307
C          C       0.03860   0.67737   0.63390  -0.07993
C          C       0.31971   0.55631   0.78736  -0.08672
C          C       0.06925   0.75641   0.63829  -0.09728
C          C       0.35991   0.55762   0.82650   0.60762
C          C       0.02167   0.82486   0.62651   0.60059
N          N       0.29624   0.05364   0.17386  -0.10421
N          N       0.70376   0.94637   0.17386  -0.10429
N          N       0.20400   0.55344   0.32621  -0.10286
N          N       0.79600   0.44657   0.32621  -0.10271
N          N       0.70376   0.94637   0.82614  -0.10434
N          N       0.29624   0.05364   0.82614  -0.10419
N          N       0.79600   0.44657   0.67379  -0.10247
N          N       0.20400   0.55344   0.67379  -0.10267
O          O       0.38476   0.64203   0.03901  -0.98663
O          O       0.28985   0.70016   0.09344  -0.66240
O          O       0.32169   0.58712   0.14259  -0.64634
O          O       0.44914   0.69005   0.11503  -0.66088
O          O       0.42407   0.53111   0.08755  -0.97468
O          O       0.30938   0.77808   0.03721  -0.67183
O          O       0.06892   0.03128   0.32891  -0.61816
O          O       0.44936   0.39718   0.12725  -0.63924
O          O       0.61524   0.35797   0.03901  -0.98673
O          O       0.71015   0.29984   0.09344  -0.66224
O          O       0.67831   0.41289   0.14259  -0.64635
O          O       0.55087   0.30996   0.11503  -0.66098
O          O       0.57593   0.46889   0.08755  -0.97474
O          O       0.69062   0.22192   0.03721  -0.67189
O          O       0.93108   0.96872   0.32891  -0.61801
O          O       0.55064   0.60282   0.12725  -0.63927
O          O       0.11511   0.14234   0.46076  -0.98746
O          O       0.21018   0.19991   0.40616  -0.66214
O          O       0.17859   0.08692   0.35742  -0.64526
O          O       0.05135   0.18997   0.38405  -0.66091
O          O       0.07626   0.03116   0.41219  -0.97834
O          O       0.19071   0.27777   0.46261  -0.67229
O          O       0.43124   0.53151   0.17153  -0.61577
O          O       0.05079   0.89702   0.37355  -0.63885
O          O       0.88489   0.85767   0.46076  -0.98758
O          O       0.78982   0.80009   0.40616  -0.66207
O          O       0.82141   0.91308   0.35742  -0.64533
O          O       0.94865   0.81003   0.38405  -0.66096
O          O       0.92374   0.96884   0.41219  -0.97855
O          O       0.80929   0.72224   0.46261  -0.67242
O          O       0.56876   0.46849   0.17153  -0.61572
O          O       0.94921   0.10298   0.37355  -0.63894
O          O       0.61524   0.35797   0.96099  -0.98674
O          O       0.71015   0.29984   0.90656  -0.66212
O          O       0.67831   0.41289   0.85741  -0.64644
O          O       0.55087   0.30996   0.88497  -0.66101
O          O       0.57593   0.46889   0.91245  -0.97475
O          O       0.69062   0.22192   0.96279  -0.67207
O          O       0.93108   0.96872   0.67109  -0.61798
O          O       0.55064   0.60282   0.87274  -0.63928
O          O       0.38476   0.64203   0.96099  -0.98668
O          O       0.28985   0.70016   0.90656  -0.66228
O          O       0.32169   0.58712   0.85741  -0.64647
O          O       0.44914   0.69005   0.88497  -0.66102
O          O       0.42407   0.53111   0.91245  -0.97475
O          O       0.30938   0.77808   0.96279  -0.67200
O          O       0.06892   0.03128   0.67109  -0.61812
O          O       0.44936   0.39718   0.87274  -0.63926
O          O       0.88489   0.85767   0.53924  -0.98759
O          O       0.78982   0.80009   0.59384  -0.66213
O          O       0.82141   0.91308   0.64258  -0.64519
O          O       0.94865   0.81003   0.61595  -0.66090
O          O       0.92374   0.96884   0.58781  -0.97842
O          O       0.80929   0.72224   0.53739  -0.67229
O          O       0.56876   0.46849   0.82846  -0.61569
O          O       0.94921   0.10298   0.62645  -0.63896
O          O       0.11511   0.14234   0.53924  -0.98747
O          O       0.21018   0.19991   0.59384  -0.66233
O          O       0.17859   0.08692   0.64258  -0.64515
O          O       0.05135   0.18997   0.61595  -0.66085
O          O       0.07626   0.03116   0.58781  -0.97817
O          O       0.19071   0.27777   0.53739  -0.67213
O          O       0.43124   0.53151   0.82846  -0.61574
O          O       0.05079   0.89702   0.62645  -0.63877

