data_crystal

_audit_creation_method 'AiiDA-DDEC plugin'

_cell_length_a        14.39352
_cell_length_b        17.69043
_cell_length_c        19.31387

_cell_angle_alpha     100.59082
_cell_angle_beta     90.02034
_cell_angle_gamma     90.01855

_symmetry_space_group_name_Hall 'P 1'
_symmetry_space_group_name_H-M  'P 1'

loop_
_symmetry_equiv_pos_as_xyz
 'x,y,z'

loop_
_atom_site_label
_atom_site_type_symbol
_atom_site_fract_x
_atom_site_fract_y
_atom_site_fract_z
_atom_site_charge
Cd         Cd      0.20851   0.83217   0.56205   0.93673
Cd         Cd      0.20226   0.67247   0.36927   1.06769
Cd         Cd      0.13004   0.49415   0.99059   1.08325
Cd         Cd      0.28017   0.60386   0.17304   0.96400
Cd         Cd      0.20793   0.16840   0.93766   0.93707
Cd         Cd      0.20358   0.32702   0.13305   1.06670
Cd         Cd      0.13096   0.50776   0.50995   1.08706
Cd         Cd      0.28082   0.39625   0.32760   0.96363
Cd         Cd      0.79149   0.16783   0.43795   0.93677
Cd         Cd      0.79773   0.32753   0.63074   1.06776
Cd         Cd      0.86996   0.50585   0.00941   1.08329
Cd         Cd      0.71982   0.39614   0.82696   0.96398
Cd         Cd      0.79207   0.83160   0.06235   0.93706
Cd         Cd      0.79642   0.67298   0.86695   1.06665
Cd         Cd      0.86904   0.49224   0.49006   1.08699
Cd         Cd      0.71918   0.60375   0.67241   0.96347
H          H       0.03600   0.93738   0.39305   0.11698
H          H       0.96130   0.94883   0.27780   0.12532
H          H       0.94435   0.70398   0.22325   0.12646
H          H       0.90127   0.63468   0.39905   0.13123
H          H       0.95870   0.71595   0.44584   0.14625
H          H       0.94342   0.60159   0.26248   0.12058
H          H       0.01957   0.55368   0.31244   0.12839
H          H       0.35313   0.65465   0.90998   0.13186
H          H       0.49056   0.74196   0.92336   0.13544
H          H       0.56506   0.66652   0.11396   0.13966
H          H       0.47917   0.44287   0.08306   0.12616
H          H       0.40275   0.47006   0.02166   0.12276
H          H       0.56945   0.56842   0.15501   0.11904
H          H       0.48987   0.51119   0.19117   0.12934
H          H       0.10155   0.70177   0.11210   0.09655
H          H       0.08026   0.82065   0.06177   0.13804
H          H       0.37245   0.86835   0.10289   0.13126
H          H       0.37883   0.75176   0.15772   0.09867
H          H       0.11582   0.88219   0.96605   0.12045
H          H       0.12343  -0.00080   0.91108   0.10440
H          H       0.32130   0.10109   0.05306   0.11950
H          H       0.32250   0.98886   0.11542   0.12568
H          H       0.03571   0.06254   0.10724   0.11735
H          H       0.96018   0.05108   0.22214   0.12495
H          H       0.94323   0.29588   0.27672   0.12712
H          H       0.90338   0.36538   0.09986   0.13002
H          H       0.96176   0.28435   0.05346   0.14760
H          H       0.94235   0.39793   0.23708   0.12087
H          H       0.01915   0.44623   0.18776   0.12825
H          H       0.35234   0.34565   0.59057   0.13244
H          H       0.48953   0.25805   0.57767   0.13652
H          H       0.56521   0.33334   0.38718   0.14130
H          H       0.47827   0.55721   0.41670   0.12627
H          H       0.40399   0.52962   0.47923   0.12197
H          H       0.56958   0.43114   0.34562   0.11879
H          H       0.49010   0.48868   0.30956   0.12921
H          H       0.10215   0.29882   0.38819   0.09750
H          H       0.08038   0.17967   0.43828   0.13769
H          H       0.37232   0.13140   0.39687   0.13167
H          H       0.37900   0.24801   0.34205   0.09906
H          H       0.11584   0.11792   0.53397   0.12054
H          H       0.12370   0.00091   0.58892   0.10532
H          H       0.32101   0.89904   0.44661   0.11986
H          H       0.32189   0.01124   0.38418   0.12551
H          H       0.96399   0.06262   0.60696   0.11695
H          H       0.03869   0.05117   0.72220   0.12539
H          H       0.05564   0.29602   0.77676   0.12648
H          H       0.09873   0.36532   0.60096   0.13120
H          H       0.04130   0.28405   0.55416   0.14621
H          H       0.05658   0.39841   0.73753   0.12053
H          H       0.98043   0.44632   0.68757   0.12820
H          H       0.64687   0.34535   0.09003   0.13189
H          H       0.50943   0.25804   0.07664   0.13559
H          H       0.43494   0.33348   0.88605   0.13964
H          H       0.52082   0.55713   0.91694   0.12618
H          H       0.59725   0.52994   0.97834   0.12290
H          H       0.43055   0.43158   0.84499   0.11916
H          H       0.51013   0.48881   0.80883   0.12917
H          H       0.89845   0.29823   0.88791   0.09638
H          H       0.91973   0.17935   0.93824   0.13798
H          H       0.62754   0.13164   0.89711   0.13132
H          H       0.62117   0.24824   0.84229   0.09871
H          H       0.88418   0.11781   0.03396   0.12044
H          H       0.87656   0.00080   0.08892   0.10445
H          H       0.67870   0.89891   0.94695   0.11952
H          H       0.67750   0.01114   0.88459   0.12559
H          H       0.96429   0.93746   0.89276   0.11733
H          H       0.03982   0.94892   0.77786   0.12490
H          H       0.05677   0.70412   0.72329   0.12711
H          H       0.09662   0.63461   0.90014   0.12990
H          H       0.03823   0.71565   0.94654   0.14763
H          H       0.05765   0.60207   0.76292   0.12072
H          H       0.98085   0.55377   0.81225   0.12831
H          H       0.64765   0.65435   0.40943   0.13229
H          H       0.51047   0.74195   0.42233   0.13642
H          H       0.43479   0.66666   0.61282   0.14151
H          H       0.52173   0.44279   0.58330   0.12651
H          H       0.59600   0.47038   0.52077   0.12191
H          H       0.43042   0.56886   0.65439   0.11889
H          H       0.50990   0.51132   0.69044   0.12939
H          H       0.89785   0.70118   0.61181   0.09752
H          H       0.91962   0.82033   0.56173   0.13758
H          H       0.62767   0.86859   0.60313   0.13170
H          H       0.62100   0.75199   0.65795   0.09923
H          H       0.88416   0.88208   0.46604   0.12047
H          H       0.87630  -0.00091   0.41108   0.10522
H          H       0.67898   0.10096   0.55340   0.11992
H          H       0.67811   0.98876   0.61583   0.12565
C          C       0.07745   0.81421   0.44281   0.56303
C          C       0.03142   0.81410   0.37343  -0.13625
C          C       0.01569   0.88640   0.35543  -0.08694
C          C       0.97575   0.89287   0.29119  -0.10842
C          C       0.95179   0.82604   0.24375   0.00509
C          C       0.90430   0.83056   0.17544   0.54820
C          C       0.96625   0.75362   0.26156  -0.19100
C          C       0.00448   0.74674   0.32660   0.12810
C          C       0.97067   0.66067   0.41037  -0.21749
C          C       0.02594   0.61127   0.45204   0.62097
C          C       0.01120   0.60575   0.28923  -0.24156
C          C       0.08875   0.60167   0.23471   0.61195
C          C       0.29077   0.56875   0.99696   0.56470
C          C       0.37986   0.61051   0.00487  -0.15788
C          C       0.39902   0.65787   0.95520  -0.07144
C          C       0.47456   0.70751   0.96299  -0.10940
C          C       0.53260   0.71077   0.02174   0.02531
C          C       0.61798   0.76127   0.02941   0.55432
C          C       0.51619   0.66290   0.07063  -0.20742
C          C       0.44255   0.61002   0.06248   0.14859
C          C       0.41611   0.47662   0.07824  -0.22718
C          C       0.33771   0.43711   0.11071   0.59822
C          C       0.49651   0.56507   0.17096  -0.24749
C          C       0.47655   0.63010   0.23483   0.58940
C          C       0.15978   0.74053   0.10942   0.09291
C          C       0.14852   0.80655   0.08043  -0.17595
C          C       0.22558   0.85471   0.07705   0.10632
C          C       0.30996   0.83434   0.10519  -0.17278
C          C       0.31479   0.76845   0.13453   0.09317
C          C       0.16323   0.92858   0.98706  -0.16245
C          C       0.16654   0.99372   0.95620   0.09923
C          C       0.27756   0.05088   0.03612   0.08131
C          C       0.27815   0.98780   0.06966  -0.17705
C          C       0.22109   0.92420   0.04473   0.09954
C          C       0.07761   0.18585   0.05747   0.56257
C          C       0.03138   0.18580   0.12681  -0.13750
C          C       0.01529   0.11353   0.14476  -0.08781
C          C       0.97480   0.10702   0.20880  -0.10762
C          C       0.95049   0.17377   0.25619   0.00374
C          C       0.90244   0.16869   0.32423   0.55025
C          C       0.96535   0.24623   0.23849  -0.19083
C          C       0.00429   0.25315   0.17364   0.12768
C          C       0.97297   0.33946   0.08941  -0.22078
C          C       0.02989   0.38926   0.04919   0.62112
C          C       0.01055   0.39421   0.21101  -0.24275
C          C       0.08693   0.39943   0.26656   0.61420
C          C       0.29055   0.43120   0.50319   0.56508
C          C       0.37947   0.38924   0.49551  -0.15741
C          C       0.39838   0.34219   0.54544  -0.07156
C          C       0.47385   0.29253   0.53801  -0.11219
C          C       0.53221   0.28918   0.47948   0.02411
C          C       0.61755   0.23870   0.47226   0.55600
C          C       0.51617   0.33691   0.43037  -0.20695
C          C       0.44249   0.38967   0.43813   0.14848
C          C       0.41586   0.52302   0.42248  -0.22471
C          C       0.33623   0.56203   0.39093   0.59759
C          C       0.49665   0.43475   0.32973  -0.24762
C          C       0.47666   0.36972   0.26585   0.59007
C          C       0.16009   0.25975   0.39064   0.09298
C          C       0.14862   0.19370   0.41956  -0.17467
C          C       0.22551   0.14539   0.42281   0.10522
C          C       0.30994   0.16555   0.39462  -0.17246
C          C       0.31497   0.23143   0.36529   0.09179
C          C       0.16318   0.07156   0.51285  -0.16192
C          C       0.16663   0.00645   0.54373   0.09840
C          C       0.27736   0.94927   0.46358   0.08002
C          C       0.27776   0.01230   0.43003  -0.17489
C          C       0.22086   0.07590   0.45510   0.09856
C          C       0.92255   0.18579   0.55719   0.56299
C          C       0.96858   0.18590   0.62657  -0.13630
C          C       0.98431   0.11360   0.64457  -0.08699
C          C       0.02425   0.10713   0.70882  -0.10830
C          C       0.04820   0.17396   0.75625   0.00510
C          C       0.09570   0.16944   0.82457   0.54817
C          C       0.03374   0.24638   0.73844  -0.19100
C          C       0.99551   0.25326   0.67340   0.12811
C          C       0.02933   0.33933   0.58963  -0.21771
C          C       0.97405   0.38873   0.54796   0.62081
C          C       0.98879   0.39425   0.71077  -0.24138
C          C       0.91125   0.39833   0.76529   0.61181
C          C       0.70923   0.43124   0.00305   0.56486
C          C       0.62014   0.38949   0.99514  -0.15775
C          C       0.60098   0.34213   0.04480  -0.07145
C          C       0.52544   0.29249   0.03702  -0.10934
C          C       0.46740   0.28923   0.97826   0.02538
C          C       0.38202   0.23873   0.97059   0.55424
C          C       0.48381   0.33709   0.92937  -0.20754
C          C       0.55744   0.38998   0.93752   0.14865
C          C       0.58388   0.52338   0.92177  -0.22722
C          C       0.66228   0.56289   0.88930   0.59835
C          C       0.50348   0.43493   0.82904  -0.24735
C          C       0.52344   0.36990   0.76517   0.58939
C          C       0.84022   0.25947   0.89058   0.09299
C          C       0.85147   0.19345   0.91958  -0.17594
C          C       0.77442   0.14529   0.92295   0.10626
C          C       0.69004   0.16566   0.89481  -0.17265
C          C       0.68520   0.23155   0.86547   0.09315
C          C       0.83677   0.07142   0.01294  -0.16246
C          C       0.83346   0.00628   0.04380   0.09914
C          C       0.72244   0.94912   0.96388   0.08138
C          C       0.72185   0.01220   0.93035  -0.17711
C          C       0.77890   0.07580   0.95528   0.09952
C          C       0.92239   0.81415   0.94254   0.56245
C          C       0.96862   0.81420   0.87319  -0.13736
C          C       0.98471   0.88647   0.85524  -0.08759
C          C       0.02520   0.89297   0.79120  -0.10788
C          C       0.04951   0.82623   0.74382   0.00371
C          C       0.09755   0.83131   0.67577   0.55039
C          C       0.03465   0.75377   0.76151  -0.19098
C          C       0.99571   0.74685   0.82636   0.12771
C          C       0.02703   0.66054   0.91059  -0.22068
C          C       0.97011   0.61074   0.95081   0.62101
C          C       0.98945   0.60579   0.78899  -0.24258
C          C       0.91307   0.60057   0.73344   0.61416
C          C       0.70945   0.56881   0.49682   0.56496
C          C       0.62053   0.61076   0.50450  -0.15734
C          C       0.60162   0.65781   0.45456  -0.07168
C          C       0.52615   0.70747   0.46199  -0.11228
C          C       0.46778   0.71082   0.52053   0.02415
C          C       0.38245   0.76130   0.52774   0.55595
C          C       0.48383   0.66309   0.56963  -0.20700
C          C       0.55750   0.61033   0.56187   0.14845
C          C       0.58414   0.47698   0.57752  -0.22507
C          C       0.66377   0.43797   0.60907   0.59767
C          C       0.50335   0.56525   0.67027  -0.24772
C          C       0.52334   0.63028   0.73416   0.58977
C          C       0.83990   0.74025   0.60936   0.09276
C          C       0.85137   0.80629   0.58044  -0.17457
C          C       0.77449   0.85461   0.57720   0.10501
C          C       0.69006   0.83445   0.60539  -0.17249
C          C       0.68503   0.76857   0.63471   0.09203
C          C       0.83682   0.92844   0.48715  -0.16193
C          C       0.83337   0.99355   0.45627   0.09837
C          C       0.72264   0.05073   0.53642   0.08018
C          C       0.72224   0.98770   0.56998  -0.17477
C          C       0.77914   0.92410   0.54491   0.09852
N          N       0.01898   0.67282   0.34632  -0.10711
N          N       0.43220   0.55785   0.11010  -0.08350
N          N       0.24153   0.72119   0.13577  -0.25823
N          N       0.22322   0.05362   0.97974  -0.23523
N          N       0.01957   0.32710   0.15414  -0.10603
N          N       0.43238   0.44190   0.39053  -0.08545
N          N       0.24187   0.27884   0.36418  -0.25830
N          N       0.22329   0.94661   0.52011  -0.23369
N          N       0.98102   0.32718   0.65368  -0.10696
N          N       0.56779   0.44215   0.88991  -0.08361
N          N       0.75846   0.27881   0.86424  -0.25841
N          N       0.77678   0.94638   0.02027  -0.23490
N          N       0.98042   0.67290   0.84586  -0.10618
N          N       0.56761   0.55810   0.60947  -0.08526
N          N       0.75813   0.72116   0.63582  -0.25818
N          N       0.77670   0.05339   0.47990  -0.23394
O          O       0.15290   0.77354   0.44477  -0.59530
O          O       0.04602   0.85593   0.49684  -0.51424
O          O       0.87412   0.89577   0.16630  -0.55784
O          O       0.89343   0.76822   0.13084  -0.56576
O          O       0.11186   0.59896   0.44062  -0.52517
O          O       0.98563   0.58164   0.50011  -0.58803
O          O       0.16657   0.63602   0.25636  -0.58403
O          O       0.07797   0.56458   0.17393  -0.53759
O          O       0.25002   0.54907   0.93717  -0.53978
O          O       0.24986   0.55284   0.05232  -0.58241
O          O       0.63398   0.80221   0.98388  -0.56358
O          O       0.67113   0.75786   0.08263  -0.55795
O          O       0.29162   0.47009   0.16365  -0.56150
O          O       0.32369   0.36748   0.08037  -0.52012
O          O       0.39359   0.65986   0.24030  -0.61472
O          O       0.54067   0.64688   0.27778  -0.53176
O          O       0.15290   0.22681   0.05560  -0.59507
O          O       0.04610   0.14424   0.00333  -0.51367
O          O       0.87432   0.10300   0.33367  -0.55987
O          O       0.88931   0.23114   0.36836  -0.56550
O          O       0.11529   0.40166   0.06213  -0.52185
O          O       0.99078   0.41966   0.00068  -0.58830
O          O       0.16629   0.36731   0.24592  -0.58589
O          O       0.07350   0.43573   0.32720  -0.53843
O          O       0.24995   0.45120   0.56295  -0.53881
O          O       0.24984   0.44714   0.44775  -0.58425
O          O       0.63329   0.19745   0.51755  -0.56618
O          O       0.67110   0.24240   0.41946  -0.55793
O          O       0.29182   0.52997   0.33671  -0.56311
O          O       0.31967   0.63051   0.42322  -0.52216
O          O       0.39351   0.34020   0.25990  -0.61652
O          O       0.54103   0.35276   0.22323  -0.53098
O          O       0.84710   0.22646   0.55524  -0.59527
O          O       0.95398   0.14407   0.50316  -0.51438
O          O       0.12588   0.10423   0.83370  -0.55777
O          O       0.10657   0.23178   0.86916  -0.56573
O          O       0.88813   0.40104   0.55939  -0.52490
O          O       0.01437   0.41835   0.49990  -0.58817
O          O       0.83343   0.36398   0.74364  -0.58393
O          O       0.92203   0.43542   0.82607  -0.53740
O          O       0.74998   0.45093   0.06284  -0.53958
O          O       0.75014   0.44715   0.94768  -0.58283
O          O       0.36601   0.19779   0.01612  -0.56331
O          O       0.32887   0.24214   0.91738  -0.55813
O          O       0.70837   0.52991   0.83635  -0.56179
O          O       0.67631   0.63252   0.91963  -0.52002
O          O       0.60641   0.34013   0.75970  -0.61486
O          O       0.45933   0.35312   0.72222  -0.53181
O          O       0.84710   0.77319   0.94441  -0.59492
O          O       0.95390   0.85576   0.99667  -0.51360
O          O       0.12567   0.89700   0.66633  -0.55998
O          O       0.11069   0.76886   0.63165  -0.56557
O          O       0.88471   0.59834   0.93788  -0.52170
O          O       0.00922   0.58034  -0.00067  -0.58819
O          O       0.83371   0.63269   0.75408  -0.58572
O          O       0.92650   0.56427   0.67280  -0.53864
O          O       0.75005   0.54880   0.43705  -0.53908
O          O       0.75016   0.55286   0.55225  -0.58394
O          O       0.36671   0.80255   0.48246  -0.56633
O          O       0.32890   0.75760   0.58054  -0.55763
O          O       0.70818   0.47003   0.66330  -0.56298
O          O       0.68033   0.36949   0.57678  -0.52224
O          O       0.60649   0.65980   0.74011  -0.61651
O          O       0.45897   0.64724   0.77679  -0.53058

