data_crystal

_audit_creation_method 'AiiDA-DDEC plugin'

_cell_length_a        15.20601
_cell_length_b        20.10314
_cell_length_c        20.37299

_cell_angle_alpha     117.09956
_cell_angle_beta     96.28637
_cell_angle_gamma     103.60961

_symmetry_space_group_name_Hall 'P 1'
_symmetry_space_group_name_H-M  'P 1'

loop_
_symmetry_equiv_pos_as_xyz
 'x,y,z'

loop_
_atom_site_label
_atom_site_type_symbol
_atom_site_fract_x
_atom_site_fract_y
_atom_site_fract_z
_atom_site_charge
Ca         Ca      0.13890   0.12724   0.76595   1.44845
Ca         Ca      0.92181   0.18135   0.80283   1.45921
Ca         Ca      0.32431   0.16485   0.89729   1.40897
Ca         Ca      0.52980   0.15191   0.86827   1.46967
Ca         Ca      0.86109   0.87276   0.23405   1.44845
Ca         Ca      0.07818   0.81865   0.19717   1.45925
Ca         Ca      0.67568   0.83515   0.10271   1.40904
Ca         Ca      0.47020   0.84809   0.13173   1.46974
H          H       0.68214   0.63021   0.72207   0.13528
H          H       0.73631   0.56493   0.72925   0.13472
H          H       0.61651   0.55003   0.72997   0.14252
H          H       0.62630   0.50990   0.38672   0.13756
H          H       0.73168   0.57117   0.45725   0.13181
H          H       0.63042   0.59976   0.46479   0.14407
H          H       0.49324   0.28269   0.50225   0.13785
H          H       0.51754   0.27151   0.41509   0.13295
H          H       0.42055   0.30045   0.44275   0.14056
H          H       0.79097   0.64032   0.65950   0.08191
H          H       0.78163   0.63127   0.56821   0.07578
H          H       0.65861   0.82089   0.69493   0.12692
H          H       0.75742   0.95590   0.72710   0.11150
H          H       0.97648   0.86460   0.64980   0.11347
H          H       0.87856   0.73038   0.61326   0.10982
H          H       0.45698   0.34262   0.36224   0.07879
H          H       0.52114   0.42149   0.35177   0.07884
H          H       0.68325   0.25668   0.26127   0.12409
H          H       0.66093   0.19320   0.11985   0.12056
H          H       0.41995   0.26632   0.10205   0.10438
H          H       0.44121   0.32968   0.24111   0.11862
H          H       0.58768   0.34057   0.60190   0.06690
H          H       0.62455   0.43362   0.68610   0.07008
H          H       0.59498   0.33221   0.70650   0.11550
H          H       0.54542   0.26742   0.78000   0.09205
H          H       0.27127   0.28722   0.74101   0.11325
H          H       0.32020   0.35271   0.66617   0.12803
H          H       0.97221   0.30120   0.27275   0.14166
H          H       0.90990   0.32419   0.34480   0.13728
H          H       0.00222   0.28673   0.34992   0.14448
H          H       0.22233   0.63645   0.38703   0.13948
H          H       0.11838   0.57841   0.31464   0.13944
H          H       0.21808   0.54723   0.30687   0.13292
H          H       0.23010   0.61164   0.61735   0.13301
H          H       0.19888   0.51425   0.60089   0.14683
H          H       0.11477   0.56319   0.61381   0.13121
H          H       0.03103   0.44569   0.55493   0.07026
H          H       0.96645   0.36128   0.46694   0.07920
H          H       0.95892   0.36630   0.58406   0.11203
H          H       0.93496   0.30549   0.66570   0.10961
H          H       0.15792   0.21108   0.60864   0.11556
H          H       0.18483   0.27317   0.52726   0.13018
H          H       0.97851   0.38302   0.23515   0.07965
H          H       0.07512   0.45438   0.23762   0.07558
H          H       0.19028   0.25753   0.17310   0.12857
H          H       0.20061   0.18904   0.03879   0.10108
H          H       0.01602   0.29850   0.98101   0.08899
H          H       0.00630   0.36647   0.11402   0.11655
H          H       0.28678   0.65622   0.56630   0.07368
H          H       0.29079   0.66540   0.48476   0.07446
H          H       0.08844   0.79017   0.56123   0.12261
H          H       0.13632   0.93099   0.66328   0.11588
H          H       0.40932   0.92094   0.73103   0.10389
H          H       0.36165   0.78073   0.63024   0.11558
H          H       0.82920   0.21106   0.92522   0.39023
H          H       0.74045   0.20761   0.86136   0.40880
H          H       0.66722   0.25994   0.85022   0.37992
H          H       0.31785   0.36979   0.27793   0.13534
H          H       0.26369   0.43507   0.27075   0.13493
H          H       0.38348   0.44997   0.27003   0.14241
H          H       0.37369   0.49010   0.61328   0.13756
H          H       0.26831   0.42883   0.54275   0.13201
H          H       0.36958   0.40024   0.53520   0.14397
H          H       0.50676   0.71731   0.49775   0.13789
H          H       0.48245   0.72849   0.58491   0.13304
H          H       0.57944   0.69955   0.55724   0.14031
H          H       0.20902   0.35968   0.34050   0.08215
H          H       0.21836   0.36873   0.43179   0.07590
H          H       0.34138   0.17911   0.30507   0.12669
H          H       0.24257   0.04410   0.27289   0.11135
H          H       0.02352   0.13540   0.35020   0.11368
H          H       0.12143   0.26962   0.38674   0.10991
H          H       0.54301   0.65737   0.63776   0.07858
H          H       0.47886   0.57851   0.64823   0.07872
H          H       0.31674   0.74332   0.73872   0.12434
H          H       0.33906   0.80680   0.88014   0.12076
H          H       0.58005   0.73368   0.89794   0.10412
H          H       0.55879   0.67032   0.75889   0.11979
H          H       0.41231   0.65943   0.39810   0.06699
H          H       0.37545   0.56638   0.31390   0.07024
H          H       0.40502   0.66779   0.29350   0.11582
H          H       0.45457   0.73258   0.22000   0.09219
H          H       0.72872   0.71278   0.25899   0.11304
H          H       0.67979   0.64729   0.33383   0.12781
H          H       0.02778   0.69880   0.72724   0.14160
H          H       0.09010   0.67581   0.65520   0.13708
H          H       0.99778   0.71327   0.65008   0.14459
H          H       0.77766   0.36355   0.61297   0.13961
H          H       0.88161   0.42159   0.68536   0.13918
H          H       0.78191   0.45277   0.69313   0.13304
H          H       0.76990   0.38836   0.38265   0.13313
H          H       0.80111   0.48575   0.39911   0.14700
H          H       0.88522   0.43681   0.38619   0.13105
H          H       0.96896   0.55431   0.44507   0.07028
H          H       0.03354   0.63872   0.53305   0.07905
H          H       0.04107   0.63370   0.41594   0.11187
H          H       0.06504   0.69451   0.33429   0.10931
H          H       0.84207   0.78892   0.39136   0.11570
H          H       0.81517   0.72683   0.47274   0.13041
H          H       0.02148   0.61698   0.76485   0.07938
H          H       0.92487   0.54562   0.76237   0.07563
H          H       0.80971   0.74247   0.82690   0.12867
H          H       0.79938   0.81096   0.96121   0.10126
H          H       0.98398   0.70149   0.01899   0.08886
H          H       0.99370   0.63353   0.88598   0.11646
H          H       0.71322   0.34378   0.43370   0.07382
H          H       0.70920   0.33460   0.51524   0.07453
H          H       0.91155   0.20983   0.43877   0.12249
H          H       0.86367   0.06901   0.33672   0.11563
H          H       0.59067   0.07906   0.26896   0.10399
H          H       0.63834   0.21927   0.36976   0.11575
H          H       0.17080   0.78894   0.07477   0.39034
H          H       0.25954   0.79239   0.13864   0.40883
H          H       0.33277   0.74006   0.14978   0.37996
C          C       0.66715   0.55138   0.57345  -0.05490
C          C       0.63037   0.50872   0.49367   0.10843
C          C       0.57079   0.43018   0.45946  -0.05610
C          C       0.55246   0.39323   0.50342   0.10156
C          C       0.58797   0.43728   0.58296  -0.06357
C          C       0.64132   0.51774   0.61854   0.09482
C          C       0.67052   0.56788   0.70430  -0.44003
C          C       0.65560   0.54884   0.44800  -0.43005
C          C       0.49357   0.30747   0.46433  -0.43628
C          C       0.74200   0.63013   0.60954  -0.02259
C          C       0.76199   0.76699   0.65220   0.25726
C          C       0.72780   0.83100   0.68442  -0.22154
C          C       0.78278   0.90574   0.70242  -0.07215
C          C       0.87292   0.91865   0.69003  -0.07844
C          C       0.90654   0.85463   0.65887  -0.06083
C          C       0.85171   0.77914   0.63945  -0.23953
C          C       0.93199  -0.00088   0.71068   0.62321
C          C       0.52719   0.38303   0.37533  -0.01843
C          C       0.56575   0.29938   0.26047   0.26150
C          C       0.62654   0.25903   0.22575  -0.21533
C          C       0.61374   0.22349   0.14737  -0.06361
C          C       0.53974   0.22640   0.10174  -0.08866
C          C       0.47767   0.26425   0.13680  -0.06774
C          C       0.48987   0.30046   0.21542  -0.24192
C          C       0.52983   0.19288   0.01908   0.59669
C          C       0.57485   0.39761   0.62993  -0.01107
C          C       0.46036   0.34728   0.68177   0.25000
C          C       0.52432   0.32313   0.71378  -0.24646
C          C       0.49666   0.28685   0.75564  -0.07204
C          C       0.40565   0.27375   0.76653  -0.09271
C          C       0.34188   0.29761   0.73322  -0.07478
C          C       0.36881   0.33394   0.69161  -0.20777
C          C       0.37837   0.23775   0.81220   0.58803
C          C       0.07727   0.44557   0.45923  -0.05870
C          C       0.04768   0.40966   0.37945   0.09644
C          C       0.08292   0.45224   0.34368  -0.06077
C          C       0.14653   0.52997   0.38722   0.08897
C          C       0.17798   0.56422   0.46696  -0.05161
C          C       0.14366   0.52167   0.50314   0.10770
C          C       0.97953   0.32649   0.33402  -0.42941
C          C       0.17845   0.57552   0.34730  -0.42534
C          C       0.17400   0.55508   0.58811  -0.42914
C          C       0.03652   0.40329   0.49900  -0.02114
C          C       0.07633   0.32627   0.55304   0.25719
C          C       0.00442   0.33449   0.59080  -0.23877
C          C       0.99022   0.29965   0.63591  -0.06898
C          C       0.04600   0.25610   0.64402  -0.08178
C          C       0.11587   0.24633   0.60390  -0.06663
C          C       0.13134   0.28098   0.55885  -0.21497
C          C       0.03087   0.22213   0.69506   0.62167
C          C       0.05453   0.41248   0.25793  -0.01065
C          C       0.09951   0.31749   0.15271   0.23332
C          C       0.15389   0.26667   0.13045  -0.20458
C          C       0.15938   0.22877   0.05561  -0.09136
C          C       0.10986   0.23891  -0.00072  -0.10669
C          C       0.05421   0.28901   0.02259  -0.09324
C          C       0.04921   0.32813   0.09815  -0.24036
C          C       0.11696   0.19915   0.92137   0.57399
C          C       0.24316   0.64798   0.51502  -0.02093
C          C       0.22092   0.77620   0.59001   0.24718
C          C       0.15822   0.81965   0.59931  -0.20646
C          C       0.18563   0.89821   0.65557  -0.07568
C          C       0.27703   0.93646   0.70441  -0.09410
C          C       0.33931   0.89241   0.69356  -0.07652
C          C       0.31229   0.81322   0.63690  -0.24261
C          C       0.30376   0.01830   0.76575   0.58585
C          C       0.33285   0.44862   0.42655  -0.05482
C          C       0.36962   0.49128   0.50633   0.10848
C          C       0.42921   0.56982   0.54053  -0.05608
C          C       0.44754   0.60677   0.49658   0.10161
C          C       0.41202   0.56272   0.41704  -0.06383
C          C       0.35868   0.48226   0.38146   0.09493
C          C       0.32947   0.43212   0.29570  -0.44008
C          C       0.34439   0.45116   0.55200  -0.43015
C          C       0.50643   0.69253   0.53567  -0.43623
C          C       0.25799   0.36987   0.39046  -0.02280
C          C       0.23800   0.23301   0.34780   0.25753
C          C       0.27219   0.16900   0.31558  -0.22164
C          C       0.21721   0.09426   0.29758  -0.07220
C          C       0.12708   0.08135   0.30997  -0.07839
C          C       0.09345   0.14537   0.34113  -0.06082
C          C       0.14829   0.22086   0.36055  -0.23951
C          C       0.06800   0.00088   0.28931   0.62323
C          C       0.47280   0.61697   0.62467  -0.01875
C          C       0.43424   0.70062   0.73953   0.26132
C          C       0.37345   0.74097   0.77424  -0.21521
C          C       0.38625   0.77651   0.85263  -0.06349
C          C       0.46025   0.77360   0.89826  -0.08868
C          C       0.52232   0.73575   0.86320  -0.06784
C          C       0.51012   0.69954   0.78458  -0.24315
C          C       0.47016   0.80712   0.98092   0.59687
C          C       0.42515   0.60239   0.37007  -0.01082
C          C       0.53963   0.65272   0.31822   0.25027
C          C       0.47568   0.67686   0.28622  -0.24666
C          C       0.50333   0.71315   0.24436  -0.07194
C          C       0.59434   0.72624   0.23346  -0.09263
C          C       0.65811   0.70239   0.26678  -0.07487
C          C       0.63119   0.66605   0.30839  -0.20781
C          C       0.62163   0.76225   0.18779   0.58804
C          C       0.92272   0.55443   0.54077  -0.05851
C          C       0.95232   0.59034   0.62055   0.09636
C          C       0.91707   0.54776   0.65632  -0.06095
C          C       0.85347   0.47002   0.61278   0.08901
C          C       0.82202   0.43578   0.53304  -0.05155
C          C       0.85633   0.47833   0.49686   0.10762
C          C       0.02046   0.67351   0.66598  -0.42938
C          C       0.82154   0.42448   0.65270  -0.42529
C          C       0.82599   0.44492   0.41189  -0.42913
C          C       0.96347   0.59670   0.50099  -0.02141
C          C       0.92366   0.67373   0.44695   0.25723
C          C       0.99557   0.66551   0.40920  -0.23893
C          C       0.00977   0.70035   0.36409  -0.06883
C          C       0.95399   0.74390   0.35598  -0.08177
C          C       0.88412   0.75367   0.39609  -0.06661
C          C       0.86866   0.71902   0.44115  -0.21491
C          C       0.96912   0.77787   0.30494   0.62169
C          C       0.94547   0.58752   0.74207  -0.01083
C          C       0.90049   0.68251   0.84729   0.23330
C          C       0.84610   0.73333   0.86955  -0.20451
C          C       0.84062   0.77123   0.94439  -0.09127
C          C       0.89013   0.76109   0.00072  -0.10676
C          C       0.94578   0.71099   0.97741  -0.09324
C          C       0.95079   0.67187   0.90185  -0.24056
C          C       0.88304   0.80085   0.07862   0.57418
C          C       0.75683   0.35202   0.48498  -0.02075
C          C       0.77907   0.22380   0.40999   0.24737
C          C       0.84178   0.18035   0.40069  -0.20671
C          C       0.81436   0.10179   0.34443  -0.07554
C          C       0.72297   0.06354   0.29559  -0.09433
C          C       0.66068   0.10759   0.30643  -0.07619
C          C       0.68770   0.18678   0.36310  -0.24258
C          C       0.69624   0.98169   0.23424   0.58577
O          O       0.70219   0.69444   0.63360  -0.21255
O          O       0.89328   0.05329   0.73160  -0.70205
O          O       0.01726   0.01055   0.70769  -0.65410
O          O       0.58650   0.33679   0.33832  -0.21137
O          O       0.59060   0.16536   0.98750  -0.62201
O          O       0.45815   0.19451   0.97883  -0.75592
O          O       0.48062   0.38403   0.63993  -0.20291
O          O       0.29352   0.22241   0.81973  -0.69827
O          O       0.43968   0.22168   0.84762  -0.74123
O          O       0.09752   0.36047   0.50920  -0.21175
O          O       0.96438   0.23300   0.72840  -0.67856
O          O       0.08469   0.18512   0.70398  -0.68140
O          O       0.10188   0.35391   0.22918  -0.20947
O          O       0.06418   0.19987   0.86664  -0.74001
O          O       0.17735   0.16129   0.90313  -0.73103
O          O       0.18377   0.69783   0.53485  -0.20780
O          O       0.24376   0.05636   0.77549  -0.70583
O          O       0.38591   0.05353   0.81396  -0.74073
O          O       0.81782   0.20606   0.87513  -0.94265
O          O       0.65980   0.20888   0.84614  -0.95002
O          O       0.29780   0.30556   0.36640  -0.21287
O          O       0.10671   0.94671   0.26840  -0.70235
O          O       0.98273   0.98944   0.29231  -0.65375
O          O       0.41349   0.66321   0.66168  -0.21098
O          O       0.40939   0.83464   0.01250  -0.62171
O          O       0.54185   0.80549   0.02117  -0.75642
O          O       0.51937   0.61597   0.36007  -0.20341
O          O       0.70647   0.77759   0.18027  -0.69856
O          O       0.56032   0.77832   0.15237  -0.74096
O          O       0.90247   0.63953   0.49080  -0.21150
O          O       0.03561   0.76700   0.27160  -0.67889
O          O       0.91531   0.81488   0.29602  -0.68112
O          O       0.89811   0.64609   0.77082  -0.20908
O          O       0.93581   0.80013   0.13336  -0.74041
O          O       0.82264   0.83871   0.09687  -0.73077
O          O       0.81623   0.30217   0.46515  -0.20820
O          O       0.75623   0.94363   0.22451  -0.70612
O          O       0.61409   0.94647   0.18603  -0.74033
O          O       0.18217   0.79394   0.12487  -0.94276
O          O       0.34019   0.79112   0.15385  -0.95013

