data_crystal

_audit_creation_method 'AiiDA-DDEC plugin'

_cell_length_a        12.38570
_cell_length_b        18.42936
_cell_length_c        24.64897

_cell_angle_alpha     90.00000
_cell_angle_beta     90.00000
_cell_angle_gamma     109.51304

_symmetry_space_group_name_Hall 'P 1'
_symmetry_space_group_name_H-M  'P 1'

loop_
_symmetry_equiv_pos_as_xyz
 'x,y,z'

loop_
_atom_site_label
_atom_site_type_symbol
_atom_site_fract_x
_atom_site_fract_y
_atom_site_fract_z
_atom_site_charge
Gd         Gd      0.24382   0.76962   0.78700   1.96380
Gd         Gd      0.75616   0.23037   0.28699   1.96373
Gd         Gd      0.52373   0.76960   0.71293   1.96620
Gd         Gd      0.47627   0.23040   0.21293   1.96617
H          H       0.04589   0.85902   0.76644   0.09533
H          H       0.97548   0.96305   0.80143   0.10875
H          H       0.07859   0.04404   0.87928   0.09706
H          H       0.24895   0.01813   0.91911   0.11599
H          H       0.30811   0.91209   0.87962   0.08805
H          H       0.07708   0.55464   0.89501   0.13186
H          H       0.07111   0.80756   0.93325   0.12837
H          H       0.93112   0.79259   0.09422   0.11647
H          H       0.91131   0.65483   0.09906   0.11325
H          H       0.98996   0.43470   0.89860   0.05407
H          H       0.12378   0.44868   0.93145   0.06731
H          H       0.01442   0.30801   0.91497   0.12829
H          H       0.03332   0.32721   0.98565   0.14411
H          H       0.89856   0.31532   0.95443   0.12959
H          H       0.67878   0.36402   0.09233   0.12992
H          H       0.93166   0.43705   0.24557   0.14305
H          H       0.19721   0.64288   0.19419   0.12259
H          H       0.10989   0.63124   0.10290   0.10086
H          H       0.73182   0.34112   0.00490   0.06012
H          H       0.60861   0.37010  -0.00130   0.05409
H          H       0.66247   0.33461   0.90689   0.12709
H          H       0.68877   0.43546   0.90902   0.14565
H          H       0.80451   0.39939   0.91522   0.12466
H          H       0.41873   0.83258   0.90716   0.13673
H          H       0.73716   0.97652   0.79493   0.13681
H          H       0.94025   0.15858   0.89914   0.11228
H          H       0.80894   0.10473   0.97578   0.11327
H          H       0.28878   0.83587   0.97095   0.07125
H          H       0.37099   0.77790   0.99005   0.06314
H          H       0.20805   0.76099   0.05514   0.12820
H          H       0.34195   0.80327   0.08915   0.13418
H          H       0.25876   0.86100   0.06956   0.12752
H          H       0.95412   0.14098   0.26644   0.09541
H          H       0.02452   0.03695   0.30143   0.10870
H          H       0.92141   0.95596   0.37928   0.09687
H          H       0.75105   0.98188   0.41911   0.11588
H          H       0.69189   0.08792   0.37962   0.08800
H          H       0.92292   0.44537   0.39501   0.13190
H          H       0.92888   0.19245   0.43325   0.12840
H          H       0.06888   0.20741   0.59422   0.11652
H          H       0.08869   0.34517   0.59906   0.11328
H          H       0.01004   0.56530   0.39860   0.05406
H          H       0.87622   0.55132   0.43145   0.06727
H          H       0.98559   0.69200   0.41497   0.12831
H          H       0.96668   0.67279   0.48565   0.14418
H          H       0.10144   0.68468   0.45443   0.12955
H          H       0.32122   0.63598   0.59233   0.12989
H          H       0.06834   0.56295   0.74557   0.14313
H          H       0.80278   0.35712   0.69419   0.12253
H          H       0.89010   0.36876   0.60290   0.10090
H          H       0.26817   0.65888   0.50490   0.06025
H          H       0.39139   0.62990   0.49870   0.05407
H          H       0.33753   0.66539   0.40689   0.12727
H          H       0.31123   0.56455   0.40902   0.14552
H          H       0.19549   0.60061   0.41522   0.12471
H          H       0.58127   0.16742   0.40716   0.13673
H          H       0.26285   0.02349   0.29493   0.13681
H          H       0.05975   0.84142   0.39915   0.11224
H          H       0.19106   0.89527   0.47578   0.11322
H          H       0.71122   0.16413   0.47095   0.07125
H          H       0.62901   0.22210   0.49005   0.06327
H          H       0.79195   0.23901   0.55514   0.12816
H          H       0.65805   0.19673   0.58915   0.13434
H          H       0.74124   0.13900   0.56956   0.12745
H          H       0.81012   0.85807   0.73349   0.09531
H          H       0.98462   0.96154   0.69862   0.10975
H          H       0.96319   0.04239   0.62036   0.09718
H          H       0.76719   0.01750   0.58061   0.11590
H          H       0.60199   0.91203   0.61998   0.08735
H          H       0.47730   0.55571   0.60479   0.13149
H          H       0.73756   0.80846   0.56707   0.12828
H          H       0.86139   0.79305   0.40595   0.11651
H          H       0.74436   0.65520   0.40136   0.11345
H          H       0.44462   0.43559   0.60165   0.05470
H          H       0.32607   0.45043   0.56803   0.06757
H          H       0.29359   0.30922   0.58478   0.12859
H          H       0.29452   0.32895   0.51420   0.14412
H          H       0.41689   0.31620   0.54544   0.12964
H          H       0.68459   0.36330   0.40853   0.12955
H          H       0.50523   0.43762   0.25482   0.14335
H          H       0.44627   0.64387   0.30682   0.12275
H          H       0.52235   0.63178   0.39795   0.10089
H          H       0.61218   0.34162   0.49496   0.06015
H          H       0.76396   0.37097   0.50221   0.05341
H          H       0.67085   0.33383   0.59314   0.12723
H          H       0.74525   0.43461   0.59218   0.14480
H          H       0.59395   0.39899   0.58447   0.12453
H          H       0.41295   0.83100   0.59258   0.13679
H          H       0.23822   0.97597   0.70482   0.13553
H          H       0.21856   0.15860   0.60048   0.11223
H          H       0.29515   0.10395   0.52385   0.11317
H          H       0.54806   0.83580   0.52913   0.07084
H          H       0.40793   0.77729   0.51088   0.06254
H          H       0.55309   0.75921   0.44586   0.12664
H          H       0.46001   0.80004   0.41148   0.13412
H          H       0.60078   0.85878   0.43003   0.12814
H          H       0.18987   0.14193   0.23349   0.09537
H          H       0.01538   0.03846   0.19861   0.10982
H          H       0.03681   0.95761   0.12036   0.09721
H          H       0.23281   0.98250   0.08061   0.11589
H          H       0.39801   0.08797   0.11998   0.08725
H          H       0.52269   0.44429   0.10479   0.13137
H          H       0.26243   0.19154   0.06707   0.12818
H          H       0.13861   0.20696   0.90595   0.11642
H          H       0.25564   0.34480   0.90136   0.11345
H          H       0.55538   0.56441   0.10165   0.05468
H          H       0.67393   0.54957   0.06803   0.06754
H          H       0.70641   0.69078   0.08478   0.12852
H          H       0.70548   0.67105   0.01420   0.14409
H          H       0.58310   0.68380   0.04543   0.12974
H          H       0.31541   0.63670   0.90853   0.12966
H          H       0.49477   0.56238   0.75482   0.14344
H          H       0.55373   0.35613   0.80682   0.12267
H          H       0.47765   0.36822   0.89795   0.10086
H          H       0.38782   0.65839   0.99496   0.06010
H          H       0.23603   0.62903   0.00221   0.05342
H          H       0.32914   0.66617   0.09314   0.12729
H          H       0.25475   0.56539   0.09218   0.14482
H          H       0.40605   0.60101   0.08446   0.12448
H          H       0.58705   0.16900   0.09258   0.13688
H          H       0.76178   0.02403   0.20482   0.13549
H          H       0.78144   0.84140   0.10048   0.11222
H          H       0.70484   0.89605   0.02385   0.11323
H          H       0.45193   0.16420   0.02913   0.07083
H          H       0.59206   0.22271   0.01088   0.06257
H          H       0.44691   0.24079   0.94586   0.12673
H          H       0.53998   0.19996   0.91148   0.13404
H          H       0.39922   0.14123   0.93003   0.12804
C          C       0.08797   0.89531   0.80042   0.09839
C          C       0.04936   0.95331   0.81973  -0.13753
C          C       0.10726  -0.00126   0.86293  -0.02845
C          C       0.20197   0.98452   0.88511  -0.13703
C          C       0.23496   0.92528   0.86347   0.10614
C          C       0.97150   0.57102   0.02154  -0.07417
C          C       0.00655   0.53734   0.97678   0.21845
C          C       0.05061   0.58104   0.92964  -0.22505
C          C       0.06373   0.65848   0.92740  -0.03399
C          C       0.02997   0.69536   0.97181   0.04911
C          C       0.03751   0.77390   0.96940  -0.20364
C          C       0.00146   0.80697   0.01278   0.13059
C          C       0.95744   0.76459   0.06035  -0.16960
C          C       0.94719   0.68786   0.06291  -0.11209
C          C       0.98255   0.65043   0.01919   0.03036
C          C       0.12140   0.70377   0.87889   0.58574
C          C       0.03029   0.42413   0.93617   0.07733
C          C       0.99173   0.33871   0.94893  -0.40685
C          C       0.91668   0.52110   0.06812  -0.06627
C          C       0.81292   0.46211   0.05864   0.19842
C          C       0.76071   0.40868   0.09964  -0.22517
C          C       0.81285   0.41113   0.14962  -0.05220
C          C       0.91672   0.47176   0.16225   0.06525
C          C       0.96872   0.47960   0.21435  -0.20207
C          C       0.06692   0.54074   0.22499   0.14179
C          C       0.11882   0.59606   0.18478  -0.16382
C          C       0.06974   0.58912   0.13398  -0.12248
C          C       0.96738   0.52812   0.12085   0.03278
C          C       0.75467   0.34744   0.18805   0.65858
C          C       0.69904   0.38430   0.98703   0.07949
C          C       0.71475   0.38883   0.92594  -0.41685
C          C       0.61631   0.98128   0.97310  -0.05426
C          C       0.51773   0.91755   0.96516   0.20040
C          C       0.49581   0.88163   0.91396  -0.22381
C          C       0.57119   0.90796   0.87088  -0.06325
C          C       0.67336   0.97282   0.87732   0.06680
C          C       0.75148   0.00436   0.83428  -0.21410
C          C       0.84438   0.07002   0.84282   0.14134
C          C       0.86638   0.10683   0.89392  -0.16910
C          C       0.79269   0.07674   0.93633  -0.10958
C          C       0.69410   0.01001   0.92952   0.03539
C          C       0.53663   0.86566   0.81874   0.65324
C          C       0.34486   0.82674   0.00281   0.07987
C          C       0.28537   0.81221   0.05749  -0.40912
C          C       0.91204   0.10470   0.30042   0.09814
C          C       0.95064   0.04669   0.31973  -0.13750
C          C       0.89274   0.00126   0.36293  -0.02839
C          C       0.79803   0.01549   0.38511  -0.13689
C          C       0.76505   0.07473   0.36347   0.10602
C          C       0.02850   0.42898   0.52154  -0.07439
C          C       0.99344   0.46267   0.47678   0.21858
C          C       0.94939   0.41897   0.42964  -0.22491
C          C       0.93627   0.34153   0.42739  -0.03440
C          C       0.97003   0.30465   0.47181   0.04922
C          C       0.96249   0.22611   0.46940  -0.20389
C          C      -0.00147   0.19304   0.51278   0.13065
C          C       0.04255   0.23541   0.56035  -0.16977
C          C       0.05280   0.31214   0.56291  -0.11213
C          C       0.01745   0.34957   0.51919   0.03062
C          C       0.87858   0.29623   0.37889   0.58613
C          C       0.96971   0.57587   0.43617   0.07742
C          C       0.00827   0.66130   0.44893  -0.40677
C          C       0.08332   0.47890   0.56812  -0.06621
C          C       0.18708   0.53790   0.55865   0.19854
C          C       0.23928   0.59132   0.59964  -0.22512
C          C       0.18715   0.58887   0.64962  -0.05243
C          C       0.08328   0.52825   0.66225   0.06539
C          C       0.03128   0.52040   0.71435  -0.20216
C          C       0.93308   0.45926   0.72499   0.14175
C          C       0.88118   0.40395   0.68479  -0.16365
C          C       0.93026   0.41088   0.63398  -0.12266
C          C       0.03261   0.47188   0.62086   0.03277
C          C       0.24533   0.65256   0.68805   0.65868
C          C       0.30096   0.61570   0.48703   0.07938
C          C       0.28525   0.61118   0.42594  -0.41689
C          C       0.38369   0.01873   0.47310  -0.05432
C          C       0.48227   0.08245   0.46516   0.20045
C          C       0.50419   0.11837   0.41396  -0.22369
C          C       0.42881   0.09204   0.37088  -0.06315
C          C       0.32664   0.02718   0.37732   0.06668
C          C       0.24852   0.99564   0.33428  -0.21395
C          C       0.15562   0.92999   0.34282   0.14123
C          C       0.13362   0.89318   0.39392  -0.16906
C          C       0.20731   0.92326   0.43633  -0.10974
C          C       0.30590   0.99000   0.42952   0.03546
C          C       0.46337   0.13434   0.31874   0.65321
C          C       0.65514   0.17326   0.50281   0.07959
C          C       0.71462   0.18779   0.55749  -0.40915
C          C       0.80462   0.89428   0.69936   0.09719
C          C       0.90129   0.95201   0.68011  -0.13641
C          C       0.88915   0.99741   0.63676  -0.02852
C          C       0.78043   0.98367   0.61456  -0.13651
C          C       0.68814   0.92471   0.63616   0.10565
C          C       0.60100   0.57165   0.47878  -0.07272
C          C       0.53195   0.53798   0.52338   0.21711
C          C       0.53079   0.58186   0.57033  -0.22480
C          C       0.59519   0.65917   0.57278  -0.03302
C          C       0.66662   0.69602   0.52864   0.04897
C          C       0.73754   0.77453   0.53103  -0.20406
C          C       0.80628   0.80750   0.48755   0.13095
C          C       0.80783   0.76504   0.43999  -0.17023
C          C       0.74181   0.68832   0.43752  -0.11185
C          C       0.66928   0.65099   0.48127   0.03044
C          C       0.58152   0.70404   0.62131   0.58426
C          C       0.39456   0.42526   0.56383   0.07556
C          C       0.34732   0.33991   0.55098  -0.40645
C          C       0.60568   0.52155   0.43224  -0.06591
C          C       0.65029   0.46236   0.44174   0.19793
C          C       0.64823   0.40847   0.40085  -0.22449
C          C       0.59887   0.41117   0.35076  -0.05195
C          C       0.55537   0.47194   0.33821   0.06585
C          C       0.51083   0.48004   0.28620  -0.20209
C          C       0.47381   0.54146   0.27580   0.14222
C          C       0.47732   0.59668   0.31614  -0.16461
C          C       0.51974   0.58954   0.36683  -0.12285
C          C       0.56116   0.52833   0.37967   0.03234
C          C       0.59403   0.34762   0.31210   0.65509
C          C       0.68711   0.38483   0.51336   0.08051
C          C       0.67353   0.38847   0.57437  -0.41614
C          C       0.36434   0.98028   0.52675  -0.05559
C          C       0.39942   0.91655   0.53487   0.20128
C          C       0.38450   0.88007   0.58598  -0.22668
C          C       0.33416   0.90613   0.62881  -0.06244
C          C       0.29803   0.97167   0.62234   0.06667
C          C       0.25201   0.00369   0.66540  -0.21275
C          C       0.22575   0.06987   0.65690   0.13958
C          C       0.24061   0.10670   0.60580  -0.16882
C          C       0.28368   0.07619   0.56338  -0.11020
C          C       0.31512   0.00914   0.57022   0.03686
C          C       0.32294   0.86344   0.68103   0.65297
C          C       0.48230   0.82594   0.49752   0.07958
C          C       0.52619   0.81018   0.44288  -0.40836
C          C       0.19538   0.10572   0.19936   0.09717
C          C       0.09870   0.04799   0.18011  -0.13638
C          C       0.11084   0.00259   0.13676  -0.02854
C          C       0.21957   0.01633   0.11456  -0.13655
C          C       0.31185   0.07529   0.13616   0.10568
C          C       0.39900   0.42835   0.97878  -0.07260
C          C       0.46804   0.46202   0.02337   0.21721
C          C       0.46921   0.41814   0.07033  -0.22472
C          C       0.40480   0.34083   0.07277  -0.03297
C          C       0.33338   0.30398   0.02864   0.04884
C          C       0.26245   0.22547   0.03103  -0.20390
C          C       0.19372   0.19250   0.98755   0.13109
C          C       0.19217   0.23496   0.93999  -0.17023
C          C       0.25819   0.31169   0.93752  -0.11168
C          C       0.33072   0.34901   0.98127   0.03029
C          C       0.41848   0.29597   0.12131   0.58424
C          C       0.60544   0.57474   0.06383   0.07547
C          C       0.65268   0.66009   0.05098  -0.40640
C          C       0.39432   0.47846   0.93224  -0.06590
C          C       0.34971   0.53764   0.94174   0.19784
C          C       0.35177   0.59153   0.90085  -0.22447
C          C       0.40113   0.58883   0.85076  -0.05191
C          C       0.44463   0.52806   0.83821   0.06574
C          C       0.48917   0.51996   0.78620  -0.20202
C          C       0.52619   0.45855   0.77580   0.14219
C          C       0.52268   0.40333   0.81614  -0.16472
C          C       0.48026   0.41047   0.86683  -0.12283
C          C       0.43883   0.47168   0.87967   0.03240
C          C       0.40596   0.65238   0.81210   0.65509
C          C       0.31288   0.61517   0.01336   0.08083
C          C       0.32647   0.61153   0.07437  -0.41629
C          C       0.63566   0.01972   0.02675  -0.05547
C          C       0.60058   0.08345   0.03487   0.20123
C          C       0.61549   0.11993   0.08598  -0.22666
C          C       0.66584   0.09387   0.12881  -0.06243
C          C       0.70197   0.02833   0.12234   0.06667
C          C       0.74799   0.99631   0.16540  -0.21266
C          C       0.77424   0.93013   0.15690   0.13950
C          C       0.75939   0.89330   0.10580  -0.16883
C          C       0.71632   0.92381   0.06338  -0.11031
C          C       0.68487   0.99086   0.07022   0.03684
C          C       0.67706   0.13657   0.18103   0.65259
C          C       0.51770   0.17407   0.99752   0.07974
C          C       0.47381   0.18983   0.94288  -0.40828
N          N       0.17898   0.88077   0.82187  -0.35416
N          N       0.82102   0.11924   0.32187  -0.35373
N          N       0.69941   0.88002   0.67772  -0.35095
N          N       0.30059   0.11998   0.17772  -0.35094
Cl         Cl      0.00843   0.90317   0.00905  -0.08581
Cl         Cl      0.13066   0.55019   0.28910  -0.09358
Cl         Cl      0.93821   0.10977   0.78920  -0.09660
Cl         Cl      0.99156   0.09684   0.50905  -0.08586
Cl         Cl      0.86934   0.44981   0.78910  -0.09353
Cl         Cl      0.06179   0.89023   0.28920  -0.09658
Cl         Cl      0.89471   0.90380   0.49086  -0.08472
Cl         Cl      0.42037   0.55191   0.21168  -0.09432
Cl         Cl      0.17244   0.11031   0.71050  -0.09664
Cl         Cl      0.10529   0.09620   0.99087  -0.08491
Cl         Cl      0.57962   0.44809   0.71168  -0.09438
Cl         Cl      0.82756   0.88969   0.21050  -0.09669
O          O       0.21815   0.75675   0.88603  -0.63296
O          O       0.07640   0.68777   0.83173  -0.61317
O          O       0.99544   0.46155   0.98140  -0.19026
O          O       0.64581   0.32669   0.19029  -0.67614
O          O       0.81555   0.31612   0.21480  -0.64145
O          O       0.76416   0.45949   0.00857  -0.20372
O          O       0.42861   0.83648   0.80940  -0.72510
O          O       0.61067   0.85804   0.78559  -0.62705
O          O       0.44588   0.89470   0.00856  -0.20383
O          O       0.78184   0.24325   0.38604  -0.63295
O          O       0.92356   0.31222   0.33172  -0.61337
O          O       0.00456   0.53845   0.48140  -0.19037
O          O       0.35419   0.67331   0.69029  -0.67632
O          O       0.18445   0.68388   0.71480  -0.64128
O          O       0.23583   0.54051   0.50857  -0.20394
O          O       0.57139   0.16352   0.30940  -0.72522
O          O       0.38933   0.14196   0.28559  -0.62694
O          O       0.55412   0.10530   0.50856  -0.20375
O          O       0.53790   0.75724   0.61404  -0.63370
O          O       0.60891   0.68739   0.66863  -0.61193
O          O       0.46764   0.46219   0.51879  -0.18918
O          O       0.68249   0.32718   0.30954  -0.67222
O          O       0.50193   0.31614   0.28537  -0.64276
O          O       0.69716   0.46010   0.49171  -0.20402
O          O       0.40247   0.83565   0.69293  -0.73099
O          O       0.23785   0.85451   0.71218  -0.62021
O          O       0.44905   0.89397   0.49153  -0.20341
O          O       0.46210   0.24276   0.11404  -0.63376
O          O       0.39109   0.31261   0.16863  -0.61186
O          O       0.53235   0.53781   0.01879  -0.18910
O          O       0.31751   0.67282   0.80954  -0.67214
O          O       0.49807   0.68386   0.78537  -0.64287
O          O       0.30285   0.53990   0.99171  -0.20405
O          O       0.59753   0.16435   0.19293  -0.73078
O          O       0.76216   0.14550   0.21218  -0.62015
O          O       0.55095   0.10604   0.99153  -0.20352

