data_crystal

_audit_creation_method 'AiiDA-DDEC plugin'

_cell_length_a        13.76777
_cell_length_b        13.75788
_cell_length_c        22.23699

_cell_angle_alpha     101.69847
_cell_angle_beta     101.77275
_cell_angle_gamma     109.96990

_symmetry_space_group_name_Hall 'P 1'
_symmetry_space_group_name_H-M  'P 1'

loop_
_symmetry_equiv_pos_as_xyz
 'x,y,z'

loop_
_atom_site_label
_atom_site_type_symbol
_atom_site_fract_x
_atom_site_fract_y
_atom_site_fract_z
_atom_site_charge
Cu         Cu      0.39128   0.62884   0.09993   0.69902
Cu         Cu      0.20742   0.47043   0.09996   0.69461
Cu         Cu      0.79244   0.52960   0.89999   0.69429
Cu         Cu      0.02955   0.29238   0.39990   0.69292
Cu         Cu      0.60875   0.37131   0.90005   0.69838
Cu         Cu      0.12794   0.37579   0.75076   0.32088
Cu         Cu      0.87206   0.62442   0.24928   0.32077
Cu         Cu      0.87128   0.10888   0.39995   0.69912
Cu         Cu      0.97030   0.70742   0.60004   0.69303
Cu         Cu      0.12868   0.89119   0.59998   0.69952
H          H       0.47777   0.25557   0.07021   0.11297
H          H       0.22365   0.30327   0.16092   0.10187
H          H       0.44507   0.72550   0.29492   0.11063
H          H       0.71652   0.10085   0.65306   0.11402
H          H       0.07394   0.49883   0.44713   0.13031
H          H       0.56521   0.45050   0.34751   0.11447
H          H       0.45752   0.55696   0.94304   0.12955
H          H       0.92624   0.97962   0.74818   0.11375
H          H       0.94368   0.04369   0.55731   0.12965
H          H       0.12029   0.17727   0.21548   0.11054
H          H       0.32208   0.77137   0.74930   0.11349
H          H       0.39993   0.78430   0.84727   0.11430
H          H       0.80307   0.72333   0.66095   0.10151
H          H       0.88828   0.48806   0.44204   0.13098
H          H       0.22573   0.72879   0.95152   0.12238
H          H       0.84090   0.23433   0.13362   0.11555
H          H       0.26603   0.65975   0.36659   0.11612
H          H       0.95316   0.59474   0.37060   0.07841
H          H       0.22517   0.94505   0.79513   0.11027
H          H       0.77125   0.27394   0.54827   0.12280
H          H       0.07957   0.22302   0.62725   0.07730
H          H       0.90462   0.54660   0.12893   0.07798
H          H       0.09538   0.45342   0.87113   0.07793
H          H       0.95047   0.06500   0.84704   0.11432
H          H       0.98819   0.38796   0.94212   0.13065
H          H       0.79234   0.89858   0.13443   0.11490
H          H       0.77645   0.69695   0.83914   0.10169
H          H       0.52219   0.74443   0.92975   0.11267
H          H       0.27798   0.42122   0.87349   0.07727
H          H       0.19683   0.27667   0.33903   0.10142
H          H       0.59279   0.03694   0.21434   0.11019
H          H       0.43550   0.85615   0.15964   0.09988
H          H       0.60011   0.21583   0.15271   0.11444
H          H       0.67718   0.61979   0.71549   0.10996
H          H       0.68826   0.41217   0.43049   0.11175
H          H       0.54237   0.44300   0.05686   0.12989
H          H       0.92042   0.77723   0.37293   0.07731
H          H       0.73397   0.34027   0.63343   0.11603
H          H       0.72192   0.57884   0.12638   0.07724
H          H       0.11813   0.58589   0.74929   0.11927
H          H       0.86840   0.83682   0.25218   0.11920
H          H       0.07170   0.85118   0.79500   0.11117
H          H       0.55226   0.62565   0.05321   0.12975
H          H       0.32275   0.38021   0.28452   0.11006
H          H       0.72373   0.72467   0.45013   0.12256
H          H       0.12570   0.05229   0.55332   0.12984
H          H       0.33709   0.36846   0.75201   0.11882
H          H       0.46317   0.90765   0.28564   0.11041
H          H       0.52065   0.57396   0.75171   0.11434
H          H       0.67789   0.22883   0.25056   0.11328
H          H       0.92598   0.50115   0.55285   0.13023
H          H      -0.00092   0.57379   0.94708   0.13022
H          H       0.22498   0.22358   0.95036   0.12246
H          H       0.04950   0.93499   0.15294   0.11435
H          H       0.35108   0.57231   0.29509   0.11077
H          H       0.77439   0.27140   0.04851   0.12291
H          H       0.77470   0.05500   0.20492   0.11014
H          H       0.39871   0.29241   0.63458   0.11472
H          H       0.91215   0.18761   0.93017   0.11193
H          H       0.66292   0.63160   0.24798   0.11876
H          H       0.05637   0.95656   0.44280   0.12953
H          H       0.00105   0.42635   0.05289   0.13058
H          H       0.87974   0.82279   0.78448   0.11021
H          H       0.13161   0.16325   0.74783   0.11924
H          H       0.64389   0.06488   0.34042   0.10006
H          H       0.04685   0.40532   0.62935   0.07861
H          H       0.64891   0.42772   0.70493   0.11085
H          H       0.01174   0.61202   0.05790   0.13034
H          H       0.15920   0.76585   0.86637   0.11596
H          H       0.77519   0.77639   0.04973   0.12283
H          H       0.08778   0.81235   0.06981   0.11203
H          H       0.11176   0.51200   0.55793   0.13113
H          H       0.44773   0.37445   0.94679   0.13003
H          H       0.40712   0.96311   0.78566   0.11021
H          H       0.92830   0.14886   0.20495   0.11069
H          H       0.91467   0.38244   0.75129   0.11969
H          H       0.60139   0.70768   0.36545   0.11453
H          H       0.47937   0.42614   0.24829   0.11411
H          H       0.28342   0.89916   0.34704   0.11422
H          H       0.56442   0.14382   0.84038   0.09993
H          H       0.72900   0.17815   0.75076   0.11314
H          H       0.08523   0.61755   0.24891   0.11940
H          H       0.27632   0.27539   0.54988   0.12250
H          H       0.07371   0.02043   0.25180   0.11364
H          H       0.22870   0.72604   0.45171   0.12268
H          H       0.24379   0.02124   0.42966   0.11238
H          H       0.53681   0.09238   0.71439   0.11028
H          H       0.43483   0.54958   0.65250   0.11440
H          H       0.88188   0.41431   0.25061   0.11920
H          H       0.55502   0.27455   0.70508   0.11096
H          H       0.20768   0.10153   0.86565   0.11505
H          H       0.35610   0.93518   0.65959   0.10033
H          H       0.75622   0.97889   0.57042   0.11245
H          H       0.87437   0.94783   0.44672   0.13008
H          H       0.27102   0.82167   0.24933   0.11358
H          H       0.31179   0.58791   0.56952   0.11187
C          C       0.62254   0.79491   0.11027   0.23755
C          C       0.81416   0.48691   0.61021   0.23668
C          C       0.48419   0.12949   0.84548   0.08936
C          C       0.02717   0.80207   0.82086  -0.02923
C          C       0.06143   0.36759   0.86682   0.09399
C          C       0.20088   0.12389   0.56652  -0.11559
C          C       0.07492   0.75340   0.85974  -0.17309
C          C       0.37537   0.43867   0.73646  -0.11977
C          C       0.93858   0.63243   0.13322   0.09363
C          C       0.29529   0.01998   0.82125  -0.02751
C          C       0.69389   0.53972   0.31353   0.21634
C          C       0.89194   0.80228   0.50968   0.60172
C          C       0.37621   0.29920   0.93358  -0.11594
C          C       0.95995   0.80591   0.18655   0.21607
C          C       0.51850   0.49887   0.23538  -0.21517
C          C       0.27580   0.62215   0.81495   0.21779
C          C       0.48007   0.20449   0.67891  -0.02842
C          C       0.01281   0.68569   0.88968   0.23769
C          C       0.86007   0.29702   0.73558  -0.11994
C          C       0.79652   0.35964   0.23506  -0.12107
C          C       0.02075   0.84858   0.14725  -0.17573
C          C       0.04111   0.78043   0.10064  -0.02588
C          C       0.78352   0.63784   0.65553   0.08609
C          C       0.05758   0.63590   0.93397  -0.11575
C          C       0.00104   0.98136   0.26471  -0.21469
C          C       0.20642   0.61922   0.01076   0.60250
C          C       0.16393   0.66554   0.96169  -0.20191
C          C      -0.00168   0.19313   0.63192   0.09331
C          C       0.18577   0.51308   0.38978   0.23672
C          C       0.20350   0.64054   0.76487  -0.11911
C          C       0.23679   0.71839   0.73638  -0.21577
C          C       0.30251   0.39209   0.00970   0.60337
C          C       0.86746   0.56087   0.36652   0.09343
C          C       0.53019   0.89743   0.31521  -0.14058
C          C      -0.00076   0.66966   0.09353  -0.09391
C          C       0.83052   0.50050   0.40641  -0.09440
C          C       0.18139   0.94314   0.39952  -0.02874
C          C       0.92178   0.09219   0.59283  -0.09397
C          C       0.76325   0.28166   0.26348  -0.21439
C          C       0.87870   0.22492   0.68556   0.21974
C          C       0.08075   0.21449   0.18559  -0.13909
C          C       0.62343   0.29628   0.14656  -0.17842
C          C       0.30786   0.50248   0.86875   0.09315
C          C       0.97285   0.19800   0.17910  -0.02865
C          C       0.13256   0.43917   0.63345   0.09326
C          C       0.00164   0.80709   0.36819   0.09343
C          C       0.39700   0.03014   0.81524  -0.13954
C          C       0.74642   0.42460   0.64008  -0.17329
C          C       0.69791   0.47233   0.67905  -0.02807
C          C       0.55517   0.47812   0.81311   0.59805
C          C       0.70312   0.70296   0.03923  -0.20328
C          C       0.30614   0.46035   0.68648   0.21601
C          C       0.91927   0.78560   0.81440  -0.13807
C          C       0.83616   0.33469   0.03835  -0.20304
C          C       0.70515   0.87755   0.38967   0.23715
C          C       0.34854   0.52099   0.64702  -0.17601
C          C       0.28017   0.54134   0.60048  -0.02657
C          C       0.16428   0.74276   0.68799   0.60195
C          C       0.98730   0.31444   0.11029   0.23696
C          C       0.37656   0.70384   0.85340  -0.17734
C          C       0.48156   0.50117   0.76459  -0.21585
C          C       0.51574   0.87050   0.15454   0.08986
C          C       0.83580   0.25702   0.31172   0.60166
C          C       0.60740   0.78583   0.35950  -0.17074
C          C       0.65149   0.47907   0.35298  -0.17619
C          C       0.69743   0.60800   0.99029   0.60273
C          C       0.75718   0.33581   0.81199   0.60206
C          C       0.79695   0.12423   0.64698  -0.17740
C          C       0.55600   0.31790   0.10021  -0.02901
C          C       0.52000   0.79558   0.32111  -0.02817
C          C       0.37748   0.20515   0.88977   0.23768
C          C       0.12121   0.77518   0.31453   0.21972
C          C       0.78199   0.26349   0.76381  -0.21568
C          C       0.07820   0.90804   0.40727  -0.09371
C          C       0.62382   0.70088   0.06643  -0.11575
C          C       0.39267   0.21426   0.64054  -0.17105
C          C       0.72417   0.37802   0.18500   0.21826
C          C       0.21638   0.36214   0.34444   0.08574
C          C       0.40889   0.57895   0.90761  -0.09466
C          C       0.86400   0.44235   0.56593  -0.11402
C          C       0.69206   0.49760   0.13115   0.09348
C          C       0.13594   0.55763   0.43407  -0.11380
C          C       0.29491   0.12256   0.61037   0.23714
C          C       0.97839   0.05523   0.31325   0.59851
C          C       0.00073   0.33033   0.90649  -0.09447
C          C       0.28551   0.41969   0.31437  -0.13895
C          C       0.97924   0.15142   0.85275  -0.17577
C          C       0.83441   0.33599   0.53817  -0.20339
C          C       0.79919   0.87622   0.43352  -0.11599
C          C       0.25353   0.57540   0.35993  -0.17380
C          C       0.21799   0.73634   0.23633  -0.21621
C          C       0.60289   0.96989   0.18475  -0.13986
C          C       0.13985   0.70297   0.26455  -0.11982
C          C       0.71443   0.58033   0.68563  -0.13834
C          C       0.44494   0.52192   0.18682   0.59676
C          C       0.79713   0.79679   0.46069  -0.20270
C          C       0.06153   0.12489   0.76340  -0.11942
C          C       0.44395   0.68214   0.89974  -0.02926
C          C       0.95884   0.21954   0.89935  -0.02568
C          C       0.62957   0.98456   0.34546   0.08996
C          C       0.79373   0.38127   0.98941   0.60296
C          C       0.20297   0.87588   0.35309  -0.17836
C          C       0.93845   0.87516   0.23659  -0.11939
C          C       0.04004   0.19412   0.81346   0.21592
C          C       0.70462   0.98007   0.17878  -0.02684
C          C       0.16556   0.66402   0.46182  -0.20361
C          C       0.11904   0.70643   0.51070   0.60450
C          C       0.20291   0.20330   0.53933  -0.20267
C          C       0.37046   0.01552   0.65456   0.08939
C          C       0.46984   0.10264   0.68481  -0.14048
C          C       0.81858   0.05702   0.60055  -0.02940
C          C       0.94255   0.36424   0.06600  -0.11594
C          C       0.71428   0.89265   0.14039  -0.17188
C          C       0.16951   0.49956   0.59357  -0.09453
C          C      -0.00105   0.01867   0.73528  -0.21469
C          C       0.88085   0.29364   0.48922   0.60381
C          C       0.92518   0.24677   0.14025  -0.17166
C          C       0.62467   0.56141   0.26355  -0.11983
C          C       0.02161   0.94479   0.68676   0.59847
C          C       0.71987   0.45872   0.39952  -0.02664
C          C       0.59102   0.42108   0.09231  -0.09426
C          C       0.28571   0.10743   0.85965  -0.17163
C          C       0.13822   0.28369   0.15552   0.08611
C          C       0.24264   0.66399   0.18806   0.60357
C          C       0.29694   0.29710   0.96082  -0.20281
C          C       0.86188   0.71644   0.84452   0.08633
C          C       0.30207   0.52771   0.32097  -0.02737
C          C       0.10805   0.19778   0.49033   0.60160
N          N       0.75853   0.47858   0.17680  -0.27263
N          N       0.71588   0.97482   0.38041  -0.24160
N          N       0.16523   0.40633   0.37979  -0.24035
N          N       0.28416   0.02526   0.61961  -0.24173
N          N       0.80237   0.58129   0.32080  -0.26487
N          N       0.91806   0.69727   0.17895  -0.26518
N          N       0.97927   0.25947   0.67753  -0.27594
N          N       0.90615   0.66522   0.87984  -0.24087
N          N       0.19765   0.41877   0.67919  -0.26498
N          N       0.47465   0.21582   0.88050  -0.24264
N          N       0.02064   0.74072   0.32257  -0.27587
N          N       0.09395   0.33487   0.12016  -0.24037
N          N       0.24141   0.52157   0.82312  -0.27224
N          N       0.52536   0.78419   0.11955  -0.24231
N          N       0.08195   0.30277   0.82109  -0.26538
N          N       0.83466   0.59365   0.62018  -0.24073
O          O       0.17183   0.56670   0.16126  -0.52210
O          O       0.09446   0.98825   0.66126  -0.51735
O          O       0.22287   0.36712   0.03365  -0.53389
O          O       0.48868   0.59435   0.16108  -0.51666
O          O       0.83126   0.19021   0.46412  -0.53517
O          O       0.01672   0.12068   0.47570  -0.54612
O          O       0.86688   0.72253   0.53361  -0.53212
O          O       0.51148   0.40563   0.83882  -0.51672
O          O       0.14362   0.54134   0.02433  -0.54485
O          O       0.90564   0.01175   0.33880  -0.51709
O          O       0.96753   0.84433   0.67558  -0.57036
O          O       0.20529   0.83360   0.67816  -0.57205
O          O       0.66610   0.29485   0.82146  -0.57242
O          O       0.33355   0.70501   0.17838  -0.57344
O          O       0.82802   0.43307   0.83888  -0.52166
O          O       0.06694   0.67201   0.66135  -0.52167
O          O       0.69029   0.33196   0.96454  -0.53499
O          O       0.13310   0.27746   0.46636  -0.53193
O          O       0.85668   0.45882   0.97568  -0.54461
O          O       0.62029   0.51670   0.97574  -0.54562
O          O       0.98327   0.87941   0.52432  -0.54555
O          O       0.34444   0.46853   0.17578  -0.56987
O          O       0.95861   0.35668   0.47572  -0.54562
O          O       0.30977   0.66915   0.03589  -0.53455
O          O       0.37957   0.48346   0.02424  -0.54669
O          O       0.16834   0.80992   0.53559  -0.53524
O          O       0.77704   0.63295   0.96631  -0.53361
O          O       0.79515   0.16583   0.32121  -0.57206
O          O       0.65567   0.53161   0.82418  -0.57056
O          O       0.93290   0.32810   0.33877  -0.52124
O          O       0.04148   0.64336   0.52432  -0.54576
O          O       0.03241   0.15569   0.32439  -0.57010

