data_crystal

_audit_creation_method 'AiiDA-DDEC plugin'

_cell_length_a        11.50574
_cell_length_b        13.69521
_cell_length_c        26.63119

_cell_angle_alpha     89.99008
_cell_angle_beta     89.99279
_cell_angle_gamma     89.96327

_symmetry_space_group_name_Hall 'P 1'
_symmetry_space_group_name_H-M  'P 1'

loop_
_symmetry_equiv_pos_as_xyz
 'x,y,z'

loop_
_atom_site_label
_atom_site_type_symbol
_atom_site_fract_x
_atom_site_fract_y
_atom_site_fract_z
_atom_site_charge
Co         Co      0.57419   0.44335   0.13662   0.95157
Co         Co      0.31636   0.56024   0.07977   0.93783
Co         Co      0.92528   0.55755   0.63734   0.92238
Co         Co      0.18270   0.43937   0.57911   0.94731
Co         Co      0.42777   0.94262   0.36319   0.93823
Co         Co      0.68152   0.06105   0.42021   0.94592
Co         Co      0.07340   0.05818   0.86330   0.94564
Co         Co      0.82025   0.93894   0.92037   0.94879
H          H       0.32252   0.41000   0.13846   0.38573
H          H       0.40142   0.36355   0.09204   0.37836
H          H       0.75478   0.61126   0.14802   0.10320
H          H       0.97221   0.62697   0.14532   0.12075
H          H      -0.00117   0.31660   0.16744   0.13094
H          H       0.78024   0.30690   0.16510   0.10360
H          H       0.88059   0.08417   0.01058   0.09627
H          H       0.78750   0.21662   0.06290   0.12702
H          H       0.45842   0.13479  -0.00005   0.13015
H          H       0.56200   0.00419   0.95048   0.08511
H          H       0.36287   0.81571   0.17595   0.13221
H          H       0.36159   0.93453   0.24921   0.09489
H          H       0.53563   0.73384   0.34008   0.09887
H          H       0.54804   0.61146   0.26910   0.12819
H          H       0.75690   0.67888   0.06630   0.11926
H          H       0.85195   0.81588   0.01765   0.08797
H          H       0.62252   0.78121   0.89935   0.09846
H          H       0.51465   0.64781   0.94517   0.12543
H          H       0.17939   0.58907   0.63854   0.38303
H          H       0.09928   0.63712   0.59298   0.37673
H          H       0.74469   0.38850   0.64815   0.10452
H          H       0.52699   0.37316   0.64537   0.12035
H          H       0.50079   0.68329   0.66740   0.13070
H          H       0.71939   0.69286   0.66519   0.10343
H          H       0.61912   0.91689   0.51026   0.09721
H          H       0.71274   0.78410   0.56250   0.12909
H          H       0.04144   0.86624   0.49959   0.12911
H          H       0.93787   0.99682   0.45020   0.08479
H          H       0.13759   0.18343   0.67647   0.12963
H          H       0.13847   0.06396   0.74944   0.09616
H          H       0.96418   0.26476   0.84054   0.09904
H          H       0.95297   0.38694   0.76950   0.12616
H          H       0.74176   0.32026   0.56600   0.11972
H          H       0.64711   0.18212   0.51740   0.08579
H          H       0.87663   0.21742   0.39918   0.10081
H          H       0.98401   0.35148   0.44514   0.12504
H          H       0.68183   0.90803   0.36214   0.38699
H          H       0.60192   0.86125   0.40816   0.38327
H          H       0.24389   0.11117   0.35153   0.10207
H          H       0.02551   0.12748   0.35449   0.12268
H          H      -0.00017   0.81665   0.33233   0.13114
H          H       0.21876   0.80750   0.33444   0.10058
H          H       0.11835   0.58320   0.49034   0.10019
H          H       0.21301   0.71437   0.43796   0.12395
H          H       0.54032   0.63251   0.50084   0.12698
H          H       0.43790   0.50233   0.55067   0.09050
H          H       0.63663   0.31837   0.32231   0.12907
H          H       0.63958   0.43734   0.24914   0.09740
H          H       0.46479   0.23684   0.15806   0.10047
H          H       0.45252   0.11514   0.22921   0.12430
H          H       0.24319   0.18091   0.43508   0.11557
H          H       0.14576   0.31810   0.48297   0.08808
H          H       0.37533   0.28446   0.60191   0.10236
H          H       0.48312   0.15068   0.55611   0.12160
H          H       0.81678   0.09140   0.86123   0.38413
H          H       0.89697   0.13933   0.90701   0.38136
H          H       0.25624   0.88877   0.85142   0.10376
H          H       0.47458   0.87280   0.85457   0.12097
H          H       0.50030   0.18328   0.83250   0.13057
H          H       0.28134   0.19264   0.83426   0.10639
H          H       0.38183   0.41729   0.99023   0.09707
H          H       0.28752   0.28555   0.93798   0.12602
H          H       0.95979   0.36824   0.00123   0.12804
H          H       0.06340   0.49842   0.05061   0.08685
H          H       0.86368   0.68301   0.82262   0.13027
H          H       0.86126   0.56370   0.74972   0.09836
H          H       0.03529   0.76402   0.65836   0.10155
H          H       0.04769   0.88580   0.72955   0.12583
H          H       0.25850   0.81803   0.93496   0.11757
H          H       0.35396   0.68046   0.98323   0.09192
H          H       0.12468   0.71508   0.10167   0.10476
H          H       0.01704   0.84898   0.05589   0.12207
C          C       0.81166   0.54759   0.15151   0.08535
C          C       0.93242   0.55582   0.15106  -0.15183
C          C       0.00209   0.47280   0.15551   0.01426
C          C       0.94739   0.38287   0.16292  -0.14533
C          C       0.82630   0.37650   0.16191   0.08255
C          C       0.13382   0.47707   0.14869   0.55533
C          C       0.78610   0.09642   0.00926   0.10537
C          C       0.73587   0.16973   0.03835  -0.14710
C          C       0.61569   0.18595   0.03532   0.01065
C          C       0.55295   0.12467   0.00349  -0.15008
C          C       0.60973   0.05268   0.97586   0.08036
C          C       0.55744   0.26758   0.06508   0.56783
C          C       0.46071   0.63146   0.17425   0.59323
C          C       0.45700   0.70507   0.21676   0.01638
C          C       0.40372   0.79680   0.21185  -0.14806
C          C       0.40174   0.86182   0.25231   0.07864
C          C       0.49902   0.75102   0.30279   0.09020
C          C       0.50620   0.68288   0.26366  -0.14579
C          C       0.55984   0.58282   0.04253   0.59155
C          C       0.62707   0.65315   0.00983   0.02056
C          C       0.72449   0.70063   0.02947  -0.14864
C          C       0.77664   0.77604   0.00264   0.08267
C          C       0.64920   0.75762   0.93705   0.08483
C          C       0.59035   0.68298   0.96217  -0.15777
C          C       0.68799   0.45220   0.65181   0.08680
C          C       0.56735   0.44400   0.65121  -0.15015
C          C       0.49752   0.52672   0.65629   0.01458
C          C       0.55189   0.61697   0.66299  -0.14690
C          C       0.67293   0.62337   0.66220   0.08172
C          C       0.36609   0.52305   0.64790   0.55574
C          C       0.71351   0.90422   0.50857   0.10297
C          C       0.76418   0.83156   0.53813  -0.15056
C          C       0.88427   0.81477   0.53495   0.01127
C          C       0.94708   0.87648   0.50339  -0.14919
C          C       0.89048   0.94766   0.47525   0.07620
C          C       0.94171   0.73259   0.56517   0.57080
C          C       0.03714   0.36822   0.67361   0.59558
C          C       0.04508   0.29463   0.71719   0.01844
C          C       0.09684   0.20249   0.71230  -0.14843
C          C       0.09859   0.13677   0.75253   0.07720
C          C       0.00091   0.24788   0.80323   0.09180
C          C       0.99466   0.31602   0.76402  -0.14962
C          C       0.93756   0.41872   0.54194   0.59293
C          C       0.87173   0.34547   0.50968   0.02150
C          C       0.77387   0.29807   0.52918  -0.14816
C          C       0.72206   0.22243   0.50219   0.08350
C          C       0.84984   0.24157   0.43678   0.08188
C          C       0.90834   0.31612   0.46203  -0.15945
C          C       0.18745   0.04710   0.34804   0.09010
C          C       0.06589   0.05631   0.34838  -0.15369
C          C       0.99652   0.97296   0.34399   0.01417
C          C       0.05149   0.88309   0.33646  -0.14782
C          C       0.17305   0.87741   0.33771   0.08450
C          C       0.86528   0.97716   0.35155   0.55817
C          C       0.21266   0.59570   0.49128   0.10074
C          C       0.26454   0.66820   0.46252  -0.14126
C          C       0.38417   0.68393   0.46521   0.01012
C          C       0.44631   0.62317   0.49728  -0.14316
C          C       0.39105   0.55109   0.52517   0.07597
C          C       0.44158   0.76602   0.43530   0.56909
C          C       0.53851   0.13304   0.32554   0.59598
C          C       0.54237   0.20748   0.28203   0.01511
C          C       0.59656   0.29871   0.28643  -0.14492
C          C       0.59884   0.36485   0.24643   0.07541
C          C       0.50060   0.25323   0.19544   0.08747
C          C       0.49490   0.18569   0.23485  -0.14272
C          C       0.43781   0.08135   0.45881   0.59633
C          C       0.37244   0.15532   0.49123   0.02005
C          C       0.27452   0.20209   0.47192  -0.14355
C          C       0.22188   0.27874   0.49752   0.08184
C          C       0.35037   0.26049   0.56405   0.08152
C          C       0.40737   0.18485   0.53896  -0.15498
C          C       0.31292   0.95268   0.84804   0.08748
C          C       0.43422   0.94383   0.84810  -0.15442
C          C       0.50370   0.02683   0.84374   0.01604
C          C       0.44882   0.11688   0.83627  -0.14837
C          C       0.32750   0.12304   0.83769   0.07988
C          C       0.63566   0.02158   0.85129   0.55826
C          C       0.28742   0.40477   0.99156   0.10160
C          C       0.23593   0.33273   0.96229  -0.14655
C          C       0.11595   0.31650   0.96557   0.01214
C          C       0.05389   0.37836   0.99732  -0.14738
C          C       0.11011   0.44933   0.02532   0.07748
C          C       0.05835   0.23472   0.93555   0.56952
C          C       0.96202   0.86795   0.82545   0.60069
C          C       0.95728   0.79380   0.78201   0.01673
C          C       0.90427   0.70234   0.78690  -0.14490
C          C       0.90145   0.63640   0.74688   0.07354
C          C      -0.00075   0.74760   0.69576   0.09065
C          C       0.00599   0.81512   0.73508  -0.14521
C          C       0.06403   0.91792   0.95882   0.59714
C          C       0.12862   0.84405   0.99102   0.01936
C          C       0.22593   0.79614   0.97161  -0.14357
C          C       0.27973   0.72144   0.99807   0.07911
C          C       0.15097   0.74033   0.06427   0.07590
C          C       0.09232   0.81399   0.03855  -0.15401
N          N       0.76170   0.45845   0.15575  -0.25014
N          N       0.72617   0.03792   0.97782  -0.26837
N          N       0.74143   0.80580   0.95673  -0.24070
N          N       0.44869   0.84013   0.29775  -0.25836
N          N       0.73723   0.54146   0.65580  -0.24877
N          N       0.77424   0.96266   0.47738  -0.26533
N          N       0.75729   0.19364   0.45608  -0.23924
N          N       0.05203   0.15937   0.79791  -0.26169
N          N       0.23850   0.95856   0.34356  -0.25133
N          N       0.27427   0.53837   0.52261  -0.26794
N          N       0.25756   0.30695   0.54364  -0.24532
N          N       0.55306   0.34147   0.20090  -0.26553
N          N       0.26231   0.04147   0.84342  -0.25257
N          N       0.22644   0.46328   0.02266  -0.26470
N          N       0.24186   0.69145   0.04360  -0.24238
N          N       0.94836   0.65920   0.70161  -0.25838
O          O       0.38939   0.42363   0.11409  -0.80349
O          O       0.52761   0.55806   0.18136  -0.57322
O          O       0.39918   0.65030   0.13562  -0.56117
O          O       0.61557   0.54006   0.07659  -0.54477
O          O       0.45365   0.56919   0.02993  -0.56302
O          O       0.17089   0.55299   0.12433  -0.57761
O          O       0.19400   0.40535   0.16375  -0.51646
O          O       0.44715   0.27371   0.06115  -0.54695
O          O       0.62182   0.32101   0.09195  -0.57491
O          O       0.11058   0.57671   0.61481  -0.79764
O          O       0.97076   0.43997   0.68115  -0.56620
O          O       0.10221   0.35047   0.63629  -0.56888
O          O       0.88178   0.46019   0.57585  -0.53403
O          O       0.04440   0.43041   0.53002  -0.57521
O          O       0.33082   0.44640   0.62419  -0.57967
O          O       0.30525   0.59322   0.66408  -0.51823
O          O       0.05185   0.72688   0.56146  -0.55485
O          O       0.87731   0.67969   0.59171  -0.57683
O          O       0.61368   0.92070   0.38587  -0.81181
O          O       0.47209   0.06009   0.31824  -0.57233
O          O       0.59934   0.15440   0.36350  -0.55798
O          O       0.38303   0.04296   0.42384  -0.54793
O          O       0.54367   0.06700   0.47139  -0.57886
O          O       0.82830   0.05439   0.37492  -0.58093
O          O       0.80554   0.90631   0.33578  -0.51390
O          O       0.55162   0.77217   0.43933  -0.54848
O          O       0.37751   0.81972   0.40802  -0.57670
O          O       0.88657   0.07993   0.88482  -0.80938
O          O       0.02762   0.94056   0.81877  -0.57161
O          O       0.89906   0.84830   0.86325  -0.56650
O          O       0.11753   0.95645   0.92348  -0.54546
O          O       0.95694   0.93220   0.97027  -0.58429
O          O       0.67198   0.94524   0.87447  -0.57681
O          O       0.69408   0.09388   0.83586  -0.52042
O          O       0.94859   0.22759   0.94018  -0.55157
O          O       0.12244   0.18105   0.90832  -0.58241

