data_crystal

_audit_creation_method 'AiiDA-DDEC plugin'

_cell_length_a        14.50450
_cell_length_b        16.82457
_cell_length_c        18.73887

_cell_angle_alpha     90.00000
_cell_angle_beta     90.00000
_cell_angle_gamma     90.00000

_symmetry_space_group_name_Hall 'P 1'
_symmetry_space_group_name_H-M  'P 1'

loop_
_symmetry_equiv_pos_as_xyz
 'x,y,z'

loop_
_atom_site_label
_atom_site_type_symbol
_atom_site_fract_x
_atom_site_fract_y
_atom_site_fract_z
_atom_site_charge
Mg         Mg      0.52671   0.23707   0.46371   1.58520
Mg         Mg      0.30499   0.24221   0.55992   1.51212
Mg         Mg      0.97329   0.76293   0.96371   1.58519
Mg         Mg      0.19501   0.75779   0.05993   1.51209
Mg         Mg      0.47329   0.73707   0.03628   1.58518
Mg         Mg      0.69500   0.74221   0.94007   1.51207
Mg         Mg      0.02671   0.26293   0.53628   1.58518
Mg         Mg      0.80499   0.25779   0.44007   1.51215
Mg         Mg      0.47329   0.76293   0.53628   1.58522
Mg         Mg      0.69500   0.75779   0.44007   1.51215
Mg         Mg      0.02671   0.23707   0.03628   1.58518
Mg         Mg      0.80499   0.24221   0.94007   1.51214
Mg         Mg      0.52671   0.26293   0.96371   1.58515
Mg         Mg      0.30499   0.25779   0.05993   1.51208
Mg         Mg      0.97329   0.73707   0.46371   1.58520
Mg         Mg      0.19501   0.74221   0.55992   1.51207
H          H       0.28922   0.50466   0.51708   0.13633
H          H       0.49562   0.39351   0.38572   0.10126
H          H       0.53740   0.52547   0.33496   0.12240
H          H       0.45774   0.64789   0.37817   0.11316
H          H       0.49360   0.27530   0.23683   0.12990
H          H       0.77172   0.35219   0.27603   0.12065
H          H       0.63979   0.40640   0.07504   0.11869
H          H       0.77472   0.41961   0.15685   0.10323
H          H       0.21078   0.49533   0.01708   0.13626
H          H       0.00438   0.60649   0.88572   0.10125
H          H       0.96259   0.47453   0.83495   0.12245
H          H       0.04226   0.35210   0.87817   0.11331
H          H       0.00639   0.72470   0.73683   0.12981
H          H       0.72828   0.64780   0.77602   0.12066
H          H       0.86021   0.59360   0.57504   0.11886
H          H       0.72528   0.58038   0.65684   0.10332
H          H       0.71078   0.00467   0.98291   0.13640
H          H       0.50438   0.89351   0.11428   0.10126
H          H       0.46259   0.02547   0.16504   0.12238
H          H       0.54225   0.14790   0.12182   0.11320
H          H       0.50639   0.77530   0.26317   0.12989
H          H       0.22828   0.85219   0.22397   0.12072
H          H       0.36021   0.90639   0.42496   0.11862
H          H       0.22528   0.91961   0.34315   0.10322
H          H       0.78922   0.99533   0.48291   0.13648
H          H       0.99562   0.10649   0.61428   0.10118
H          H       0.03741   0.97453   0.66504   0.12235
H          H       0.95774   0.85210   0.62182   0.11325
H          H       0.99361   0.22470   0.76317   0.12993
H          H       0.27172   0.14781   0.72397   0.12079
H          H       0.13979   0.09360   0.92496   0.11861
H          H       0.27472   0.08038   0.84315   0.10325
H          H       0.71078   0.49533   0.48291   0.13642
H          H       0.50438   0.60649   0.61428   0.10115
H          H       0.46259   0.47453   0.66504   0.12237
H          H       0.54225   0.35210   0.62182   0.11320
H          H       0.50639   0.72470   0.76317   0.12987
H          H       0.22828   0.64780   0.72397   0.12082
H          H       0.36021   0.59360   0.92496   0.11865
H          H       0.22528   0.58038   0.84315   0.10327
H          H       0.78922   0.50466   0.98291   0.13650
H          H       0.99562   0.39351   0.11428   0.10120
H          H       0.03741   0.52547   0.16504   0.12231
H          H       0.95774   0.64789   0.12182   0.11318
H          H       0.99361   0.27530   0.26317   0.12989
H          H       0.27172   0.35219   0.22397   0.12069
H          H       0.13979   0.40640   0.42496   0.11864
H          H       0.27472   0.41961   0.34315   0.10322
H          H       0.28922   0.99533   0.01708   0.13629
H          H       0.49562   0.10649   0.88572   0.10129
H          H       0.53740   0.97453   0.83495   0.12247
H          H       0.45774   0.85210   0.87817   0.11334
H          H       0.49360   0.22470   0.73683   0.12990
H          H       0.77172   0.14781   0.77602   0.12060
H          H       0.63979   0.09360   0.57504   0.11876
H          H       0.77472   0.08038   0.65684   0.10325
H          H       0.21078   0.00467   0.51708   0.13631
H          H       0.00438   0.89351   0.38572   0.10129
H          H       0.96259   0.02547   0.33496   0.12245
H          H       0.04226   0.14790   0.37817   0.11318
H          H       0.00639   0.77530   0.23683   0.12988
H          H       0.72828   0.85219   0.27603   0.12067
H          H       0.86021   0.90639   0.07504   0.11868
H          H       0.72528   0.91961   0.15685   0.10325
C          C       0.32137   0.65622   0.47847   0.63216
C          C       0.36831   0.58392   0.45011  -0.05298
C          C       0.34385   0.50968   0.47764  -0.09190
C          C       0.39148   0.44137   0.45609  -0.05076
C          C       0.46086   0.44707   0.40410  -0.08028
C          C       0.48381   0.52113   0.37536  -0.08591
C          C       0.43908   0.58972   0.39923  -0.07801
C          C       0.63208   0.27099   0.33486   0.65001
C          C       0.55523   0.30634   0.21908  -0.09378
C          C       0.63250   0.31023   0.26354  -0.06321
C          C       0.71209   0.35059   0.24074  -0.07046
C          C       0.48115   0.32550   0.10003   0.61925
C          C       0.55862   0.33984   0.15066  -0.06004
C          C       0.63795   0.38084   0.12837  -0.06271
C          C       0.36689   0.36447   0.48986   0.61354
C          C       0.71371   0.38731   0.17400  -0.08893
C          C       0.17863   0.34378   0.97847   0.63203
C          C       0.13169   0.41608   0.95011  -0.05280
C          C       0.15615   0.49032   0.97764  -0.09191
C          C       0.10852   0.55863   0.95609  -0.05097
C          C       0.03914   0.55292   0.90410  -0.08031
C          C       0.01619   0.47887   0.87536  -0.08578
C          C       0.06092   0.41028   0.89923  -0.07811
C          C       0.86792   0.72901   0.83486   0.65001
C          C       0.94477   0.69365   0.71907  -0.09386
C          C       0.86750   0.68977   0.76354  -0.06320
C          C       0.78791   0.64940   0.74074  -0.07052
C          C       0.01885   0.67449   0.60002   0.61925
C          C       0.94138   0.66015   0.65066  -0.06003
C          C       0.86205   0.61916   0.62837  -0.06276
C          C       0.13311   0.63553   0.98986   0.61363
C          C       0.78629   0.61269   0.67399  -0.08880
C          C       0.67862   0.15622   0.02153   0.63201
C          C       0.63169   0.08392   0.04989  -0.05274
C          C       0.65615   0.00968   0.02236  -0.09205
C          C       0.60851   0.94136   0.04391  -0.05074
C          C       0.53914   0.94707   0.09590  -0.08027
C          C       0.51619   0.02113   0.12464  -0.08605
C          C       0.56092   0.08972   0.10077  -0.07816
C          C       0.36792   0.77099   0.16514   0.64975
C          C       0.44477   0.80634   0.28092  -0.09378
C          C       0.36750   0.81022   0.23645  -0.06314
C          C       0.28791   0.85059   0.25926  -0.07043
C          C       0.51885   0.82550   0.39997   0.61937
C          C       0.44138   0.83984   0.34934  -0.06007
C          C       0.36205   0.88084   0.37163  -0.06285
C          C       0.63311   0.86447   0.01014   0.61334
C          C       0.28629   0.88731   0.32600  -0.08886
C          C       0.82137   0.84378   0.52153   0.63182
C          C       0.86831   0.91608   0.54989  -0.05246
C          C       0.84385   0.99032   0.52235  -0.09210
C          C       0.89148   0.05863   0.54391  -0.05084
C          C       0.96086   0.05293   0.59590  -0.08033
C          C       0.98381   0.97887   0.62464  -0.08612
C          C       0.93908   0.91028   0.60077  -0.07828
C          C       0.13208   0.22901   0.66514   0.64973
C          C       0.05523   0.19365   0.78092  -0.09390
C          C       0.13250   0.18977   0.73645  -0.06304
C          C       0.21209   0.14941   0.75925  -0.07053
C          C       0.98115   0.17449   0.89997   0.61923
C          C       0.05862   0.16015   0.84933  -0.05998
C          C       0.13795   0.11916   0.87163  -0.06285
C          C       0.86689   0.13553   0.51014   0.61355
C          C       0.21371   0.11269   0.82600  -0.08884
C          C       0.67862   0.34378   0.52153   0.63187
C          C       0.63169   0.41608   0.54989  -0.05254
C          C       0.65615   0.49032   0.52235  -0.09198
C          C       0.60851   0.55863   0.54391  -0.05084
C          C       0.53914   0.55292   0.59590  -0.08029
C          C       0.51619   0.47887   0.62464  -0.08599
C          C       0.56092   0.41028   0.60077  -0.07826
C          C       0.36792   0.72901   0.66514   0.64981
C          C       0.44477   0.69365   0.78092  -0.09397
C          C       0.36750   0.68977   0.73645  -0.06302
C          C       0.28791   0.64940   0.75925  -0.07056
C          C       0.51885   0.67449   0.89997   0.61924
C          C       0.44138   0.66015   0.84933  -0.05978
C          C       0.36205   0.61916   0.87163  -0.06295
C          C       0.63311   0.63553   0.51014   0.61365
C          C       0.28629   0.61269   0.82600  -0.08878
C          C       0.82137   0.65622   0.02153   0.63204
C          C       0.86831   0.58392   0.04989  -0.05276
C          C       0.84385   0.50968   0.02236  -0.09206
C          C       0.89148   0.44137   0.04391  -0.05073
C          C       0.96086   0.44707   0.09590  -0.08026
C          C       0.98381   0.52113   0.12464  -0.08592
C          C       0.93908   0.58972   0.10077  -0.07823
C          C       0.13208   0.27099   0.16514   0.64977
C          C       0.05523   0.30634   0.28092  -0.09380
C          C       0.13250   0.31023   0.23645  -0.06313
C          C       0.21209   0.35059   0.25926  -0.07043
C          C       0.98115   0.32550   0.39997   0.61927
C          C       0.05862   0.33984   0.34934  -0.06006
C          C       0.13795   0.38084   0.37163  -0.06286
C          C       0.86689   0.36447   0.01014   0.61347
C          C       0.21371   0.38731   0.32600  -0.08881
C          C       0.32137   0.84378   0.97847   0.63188
C          C       0.36831   0.91608   0.95011  -0.05273
C          C       0.34385   0.99032   0.97764  -0.09202
C          C       0.39148   0.05863   0.95609  -0.05089
C          C       0.46086   0.05293   0.90410  -0.08039
C          C       0.48381   0.97887   0.87536  -0.08589
C          C       0.43908   0.91028   0.89923  -0.07811
C          C       0.63208   0.22901   0.83486   0.65007
C          C       0.55523   0.19365   0.71907  -0.09391
C          C       0.63250   0.18977   0.76354  -0.06316
C          C       0.71209   0.14941   0.74074  -0.07055
C          C       0.48115   0.17449   0.60002   0.61922
C          C       0.55862   0.16015   0.65066  -0.05998
C          C       0.63795   0.11916   0.62837  -0.06272
C          C       0.36689   0.13553   0.98986   0.61347
C          C       0.71371   0.11269   0.67399  -0.08879
C          C       0.17863   0.15622   0.47847   0.63209
C          C       0.13169   0.08392   0.45011  -0.05286
C          C       0.15615   0.00968   0.47764  -0.09197
C          C       0.10852   0.94136   0.45609  -0.05079
C          C       0.03914   0.94707   0.40410  -0.08031
C          C       0.01619   0.02113   0.37536  -0.08607
C          C       0.06092   0.08972   0.39923  -0.07798
C          C       0.86792   0.77099   0.33486   0.64987
C          C       0.94477   0.80634   0.21908  -0.09385
C          C       0.86750   0.81022   0.26354  -0.06316
C          C       0.78791   0.85059   0.24074  -0.07042
C          C       0.01885   0.82550   0.10003   0.61921
C          C       0.94138   0.83984   0.15066  -0.06002
C          C       0.86205   0.88084   0.12837  -0.06279
C          C       0.13311   0.86447   0.48986   0.61353
C          C       0.78629   0.88731   0.17400  -0.08889
O          O       0.41230   0.30042   0.47503  -0.79820
O          O       0.36717   0.72136   0.48217  -0.76877
O          O       0.55395   0.24971   0.36125  -0.72209
O          O       0.49136   0.34527   0.03418  -0.72275
O          O       0.23838   0.65046   0.49966  -0.65333
O          O       0.30056   0.36104   0.53401  -0.63170
O          O       0.40921   0.29053   0.12388  -0.67445
O          O       0.70867   0.26160   0.36586  -0.70751
O          O       0.08770   0.69958   0.97503  -0.79830
O          O       0.13283   0.27864   0.98216  -0.76864
O          O       0.94605   0.75029   0.86125  -0.72223
O          O       0.00864   0.65472   0.53418  -0.72249
O          O       0.26162   0.34954  -0.00034  -0.65339
O          O       0.19944   0.63896   0.03402  -0.63178
O          O       0.09079   0.70947   0.62388  -0.67473
O          O       0.79133   0.73840   0.86585  -0.70746
O          O       0.58770   0.80042   0.02496  -0.79813
O          O       0.63283   0.22136   0.01783  -0.76868
O          O       0.44605   0.74971   0.13875  -0.72199
O          O       0.50864   0.84527   0.46581  -0.72295
O          O       0.76162   0.15046   0.00034  -0.65336
O          O       0.69944   0.86103   0.96598  -0.63160
O          O       0.59079   0.79053   0.37612  -0.67442
O          O       0.29133   0.76160   0.13414  -0.70730
O          O       0.91230   0.19958   0.52496  -0.79835
O          O       0.86717   0.77864   0.51783  -0.76852
O          O       0.05395   0.25029   0.63875  -0.72197
O          O       0.99136   0.15473   0.96581  -0.72296
O          O       0.73838   0.84954   0.50034  -0.65328
O          O       0.80056   0.13896   0.46598  -0.63153
O          O       0.90921   0.20947   0.87611  -0.67435
O          O       0.20867   0.23840   0.63414  -0.70729
O          O       0.58770   0.69958   0.52496  -0.79838
O          O       0.63283   0.27864   0.51783  -0.76854
O          O       0.44605   0.75029   0.63875  -0.72204
O          O       0.50864   0.65472   0.96581  -0.72294
O          O       0.76162   0.34954   0.50034  -0.65336
O          O       0.69944   0.63896   0.46598  -0.63166
O          O       0.59079   0.70947   0.87611  -0.67444
O          O       0.29133   0.73840   0.63414  -0.70732
O          O       0.91230   0.30042   0.02496  -0.79826
O          O       0.86717   0.72136   0.01783  -0.76874
O          O       0.05395   0.24971   0.13875  -0.72201
O          O       0.99136   0.34527   0.46581  -0.72287
O          O       0.73838   0.65046   0.00034  -0.65330
O          O       0.80056   0.36104   0.96598  -0.63159
O          O       0.90921   0.29053   0.37612  -0.67439
O          O       0.20867   0.26160   0.13414  -0.70733
O          O       0.41230   0.19958   0.97503  -0.79820
O          O       0.36717   0.77864   0.98216  -0.76853
O          O       0.55395   0.25029   0.86125  -0.72215
O          O       0.49136   0.15473   0.53418  -0.72253
O          O       0.23838   0.84954  -0.00034  -0.65331
O          O       0.30056   0.13896   0.03402  -0.63168
O          O       0.40921   0.20947   0.62388  -0.67462
O          O       0.70867   0.23840   0.86585  -0.70757
O          O       0.08770   0.80042   0.47503  -0.79815
O          O       0.13283   0.22136   0.48217  -0.76870
O          O       0.94605   0.74971   0.36125  -0.72212
O          O       0.00864   0.84527   0.03418  -0.72279
O          O       0.26162   0.15046   0.49966  -0.65335
O          O       0.19944   0.86103   0.53401  -0.63172
O          O       0.09079   0.79053   0.12388  -0.67443
O          O       0.79133   0.76160   0.36586  -0.70732

