data_crystal

_audit_creation_method 'AiiDA-DDEC plugin'

_cell_length_a        16.82897
_cell_length_b        17.28427
_cell_length_c        18.60565

_cell_angle_alpha     90.03406
_cell_angle_beta     90.00000
_cell_angle_gamma     90.00000

_symmetry_space_group_name_Hall 'P 1'
_symmetry_space_group_name_H-M  'P 1'

loop_
_symmetry_equiv_pos_as_xyz
 'x,y,z'

loop_
_atom_site_label
_atom_site_type_symbol
_atom_site_fract_x
_atom_site_fract_y
_atom_site_fract_z
_atom_site_charge
Cd         Cd      0.77906   0.99154   0.51951   0.86749
Cd         Cd      0.27906   0.50846   0.48049   0.86760
Cd         Cd      0.27898   0.99174   0.98093   0.86784
Cd         Cd      0.77898   0.50826   0.01907   0.86785
Cd         Cd      0.72103   0.00826   0.01907   0.86782
Cd         Cd      0.22102   0.49174   0.98093   0.86797
Cd         Cd      0.22094   0.00846   0.48049   0.86756
Cd         Cd      0.72095   0.49154   0.51951   0.86757
H          H       0.60263   0.93212   0.61395   0.13170
H          H       0.47069   0.02933   0.62277   0.12976
H          H       0.64704   0.13081   0.48950   0.12254
H          H       0.38448   0.10407   0.55163   0.10899
H          H       0.30156   0.22150   0.53311   0.10774
H          H       0.51149   0.36001   0.50919   0.12768
H          H       0.59599   0.24508   0.53143   0.11949
H          H       0.69034   0.05359   0.36222   0.12155
H          H       0.68725   0.96772   0.23574   0.15024
H          H       0.81710   0.84724   0.39698   0.12261
H          H       0.77033   0.73809   0.33848   0.12364
H          H       0.78953   0.62839   0.25320   0.11003
H          H       0.77566   0.78507   0.07483   0.11153
H          H       0.76415   0.89628   0.15865   0.12199
H          H       0.10263   0.56788   0.38606   0.13143
H          H       0.97069   0.47067   0.37723   0.12973
H          H       0.14703   0.36919   0.51051   0.12263
H          H       0.88448   0.39593   0.44837   0.10888
H          H       0.80156   0.27850   0.46689   0.10776
H          H       0.01149   0.13999   0.49082   0.12768
H          H       0.09599   0.25492   0.46858   0.11949
H          H       0.19034   0.44641   0.63779   0.12159
H          H       0.18725   0.53227   0.76426   0.15038
H          H       0.31710   0.65276   0.60302   0.12243
H          H       0.27033   0.76191   0.66153   0.12352
H          H       0.28953   0.87161   0.74680   0.10991
H          H       0.27566   0.71492   0.92518   0.11165
H          H       0.26415   0.60371   0.84135   0.12232
H          H       0.10263   0.93210   0.88610   0.13208
H          H       0.97071   0.02934   0.87730   0.12751
H          H       0.14700   0.13087   0.01063   0.12292
H          H       0.88451   0.10397   0.94842   0.10908
H          H       0.80152   0.22144   0.96694   0.10795
H          H       0.01142   0.36001   0.99085   0.12860
H          H       0.09598   0.24506   0.96868   0.11954
H          H       0.19030   0.05357   0.13776   0.12101
H          H       0.18721   0.96782   0.26425   0.15079
H          H       0.31711   0.84723   0.10294   0.12347
H          H       0.27029   0.73825   0.16134   0.12336
H          H       0.28953   0.62859   0.24671   0.11132
H          H       0.27565   0.78526   0.42511   0.11081
H          H       0.26410   0.89650   0.34131   0.12230
H          H       0.60263   0.56789   0.11390   0.13204
H          H       0.47071   0.47066   0.12270   0.12751
H          H       0.64700   0.36912   0.98937   0.12283
H          H       0.38451   0.39603   0.05159   0.10914
H          H       0.30152   0.27856   0.03307   0.10799
H          H       0.51142   0.13999   0.00915   0.12857
H          H       0.59598   0.25494   0.03132   0.11954
H          H       0.69030   0.44643   0.86224   0.12109
H          H       0.68721   0.53218   0.73575   0.15073
H          H       0.81711   0.65276   0.89706   0.12345
H          H       0.77029   0.76174   0.83867   0.12345
H          H       0.78953   0.87141   0.75330   0.11132
H          H       0.77565   0.71474   0.57489   0.11072
H          H       0.76411   0.60349   0.65869   0.12235
H          H       0.89737   0.06790   0.11390   0.13204
H          H       0.02929   0.97066   0.12270   0.12760
H          H       0.85300   0.86912   0.98937   0.12287
H          H       0.11549   0.89602   0.05159   0.10909
H          H       0.19848   0.77855   0.03307   0.10798
H          H       0.98858   0.63998   0.00915   0.12866
H          H       0.90402   0.75494   0.03132   0.11951
H          H       0.80971   0.94642   0.86224   0.12110
H          H       0.81279   0.03218   0.73575   0.15075
H          H       0.68289   0.15276   0.89706   0.12342
H          H       0.72971   0.26174   0.83867   0.12346
H          H       0.71047   0.37141   0.75329   0.11131
H          H       0.72435   0.21474   0.57489   0.11074
H          H       0.73590   0.10349   0.65869   0.12232
H          H       0.39737   0.43210   0.88610   0.13204
H          H       0.52930   0.52933   0.87730   0.12749
H          H       0.35300   0.63087   0.01063   0.12281
H          H       0.61549   0.60397   0.94842   0.10924
H          H       0.69848   0.72144   0.96694   0.10807
H          H       0.48858   0.86001   0.99085   0.12851
H          H       0.40402   0.74506   0.96868   0.11956
H          H       0.30971   0.55357   0.13776   0.12105
H          H       0.31279   0.46782   0.26425   0.15080
H          H       0.18289   0.34724   0.10294   0.12340
H          H       0.22971   0.23826   0.16134   0.12333
H          H       0.21047   0.12859   0.24671   0.11124
H          H       0.22435   0.28526   0.42511   0.11079
H          H       0.23590   0.39651   0.34131   0.12238
H          H       0.39738   0.06788   0.38606   0.13151
H          H       0.52931   0.97067   0.37723   0.12970
H          H       0.35297   0.86919   0.51051   0.12256
H          H       0.61553   0.89593   0.44837   0.10888
H          H       0.69845   0.77850   0.46689   0.10781
H          H       0.48851   0.63999   0.49082   0.12772
H          H       0.40401   0.75492   0.46858   0.11941
H          H       0.30966   0.94641   0.63779   0.12162
H          H       0.31275   0.03227   0.76426   0.15040
H          H       0.18290   0.15276   0.60302   0.12251
H          H       0.22967   0.26191   0.66153   0.12355
H          H       0.21047   0.37161   0.74680   0.10998
H          H       0.22434   0.21492   0.92518   0.11166
H          H       0.23585   0.10372   0.84135   0.12218
H          H       0.89738   0.43212   0.61395   0.13153
H          H       0.02931   0.52933   0.62277   0.12982
H          H       0.85297   0.63081   0.48950   0.12245
H          H       0.11552   0.60407   0.55163   0.10907
H          H       0.19844   0.72150   0.53311   0.10776
H          H       0.98851   0.86001   0.50919   0.12758
H          H       0.90401   0.74507   0.53143   0.11937
H          H       0.80966   0.55359   0.36222   0.12165
H          H       0.81275   0.46772   0.23574   0.15030
H          H       0.68290   0.34724   0.39698   0.12253
H          H       0.72967   0.23809   0.33848   0.12366
H          H       0.71047   0.12839   0.25320   0.11000
H          H       0.72434   0.28508   0.07483   0.11158
H          H       0.73585   0.39628   0.15865   0.12212
C          C       0.59154   0.98761   0.58885  -0.03393
C          C       0.52603   0.03475   0.59359  -0.10798
C          C       0.61726   0.08955   0.52388   0.07724
C          C       0.49516   0.16695   0.54226   0.15925
C          C       0.41234   0.16018   0.54379  -0.17972
C          C       0.36595   0.22594   0.53347  -0.08464
C          C       0.40152   0.29790   0.52053  -0.03463
C          C       0.48454   0.30372   0.51868  -0.06998
C          C       0.53168   0.23875   0.53039  -0.18218
C          C       0.35063   0.36762   0.50897   0.55357
C          C       0.71546   0.99741   0.35025  -0.04587
C          C       0.71317   0.95531   0.28772  -0.10261
C          C       0.78146   0.89135   0.37128   0.09350
C          C       0.76706   0.82422   0.25362   0.16264
C          C       0.77476   0.74897   0.28100  -0.18173
C          C       0.78487   0.68744   0.23350  -0.07474
C          C       0.78614   0.69981   0.15897  -0.03478
C          C       0.77749   0.77532   0.13255  -0.08422
C          C       0.76905   0.83766   0.17948  -0.16860
C          C       0.79250   0.63249   0.10850   0.55105
C          C       0.09154   0.51239   0.41115  -0.03385
C          C       0.02603   0.46525   0.40641  -0.10797
C          C       0.11726   0.41045   0.47613   0.07734
C          C       0.99517   0.33305   0.45774   0.15923
C          C       0.91234   0.33982   0.45622  -0.17959
C          C       0.86596   0.27406   0.46653  -0.08481
C          C       0.90152   0.20210   0.47947  -0.03453
C          C       0.98454   0.19628   0.48132  -0.06989
C          C       0.03168   0.26125   0.46962  -0.18221
C          C       0.85063   0.13238   0.49104   0.55354
C          C       0.21546   0.50259   0.64975  -0.04572
C          C       0.21317   0.54468   0.71228  -0.10252
C          C       0.28146   0.60864   0.62872   0.09326
C          C       0.26706   0.67578   0.74638   0.16270
C          C       0.27476   0.75102   0.71900  -0.18166
C          C       0.28487   0.81256   0.76651  -0.07502
C          C       0.28614   0.80019   0.84103  -0.03467
C          C       0.27749   0.72467   0.86745  -0.08423
C          C       0.26905   0.66233   0.82052  -0.16885
C          C       0.29250   0.86751   0.89150   0.55126
C          C       0.09151   0.98757   0.91127  -0.03757
C          C       0.02603   0.03472   0.90652  -0.10319
C          C       0.11721   0.08954   0.97631   0.07615
C          C       0.99515   0.16691   0.95791   0.15785
C          C       0.91233   0.16011   0.95633  -0.17868
C          C       0.86592   0.22589   0.96651  -0.08557
C          C       0.90148   0.29790   0.97927  -0.03630
C          C       0.98450   0.30372   0.98128  -0.07027
C          C       0.03167   0.23872   0.96977  -0.18122
C          C       0.85068   0.36770   0.99085   0.55532
C          C       0.21539   0.99741   0.14975  -0.04754
C          C       0.21315   0.95540   0.21227  -0.10000
C          C       0.28146   0.89135   0.12869   0.09335
C          C       0.26708   0.82440   0.24632   0.16281
C          C       0.27477   0.74919   0.21880  -0.17920
C          C       0.28491   0.68772   0.26624  -0.07659
C          C       0.28616   0.70003   0.34073  -0.03870
C          C       0.27750   0.77551   0.36736  -0.08123
C          C       0.26906   0.83786   0.32048  -0.16946
C          C       0.29243   0.63236   0.39059   0.55275
C          C       0.59152   0.51243   0.08873  -0.03752
C          C       0.52603   0.46528   0.09349  -0.10296
C          C       0.61721   0.41046   0.02369   0.07619
C          C       0.49514   0.33309   0.04209   0.15779
C          C       0.41233   0.33989   0.04367  -0.17872
C          C       0.36592   0.27411   0.03349  -0.08556
C          C       0.40148   0.20210   0.02073  -0.03634
C          C       0.48450   0.19628   0.01872  -0.07023
C          C       0.53167   0.26128   0.03024  -0.18125
C          C       0.35068   0.13230   0.00915   0.55528
C          C       0.71539   0.50259   0.85025  -0.04733
C          C       0.71315   0.54460   0.78773  -0.10019
C          C       0.78146   0.60865   0.87131   0.09328
C          C       0.76708   0.67560   0.75368   0.16274
C          C       0.77477   0.75080   0.78120  -0.17900
C          C       0.78491   0.81228   0.73377  -0.07691
C          C       0.78616   0.79997   0.65927  -0.03878
C          C       0.77750   0.72448   0.63264  -0.08133
C          C       0.76906   0.66214   0.67952  -0.16931
C          C       0.79243   0.86764   0.60942   0.55327
C          C       0.90849   0.01243   0.08873  -0.03753
C          C       0.97398   0.96528   0.09349  -0.10304
C          C       0.88279   0.91045   0.02369   0.07612
C          C       0.00486   0.83309   0.04209   0.15786
C          C       0.08767   0.83989   0.04367  -0.17873
C          C       0.13408   0.77411   0.03349  -0.08553
C          C       0.09852   0.70210   0.02073  -0.03611
C          C       0.01550   0.69628   0.01872  -0.07028
C          C       0.96834   0.76128   0.03024  -0.18137
C          C       0.14932   0.63230   0.00915   0.55502
C          C       0.78461   0.00259   0.85025  -0.04740
C          C       0.78685   0.04460   0.78773  -0.10004
C          C       0.71854   0.10865   0.87131   0.09331
C          C       0.73292   0.17560   0.75368   0.16271
C          C       0.72523   0.25081   0.78120  -0.17893
C          C       0.71510   0.31228   0.73377  -0.07676
C          C       0.71385   0.29997   0.65927  -0.03892
C          C       0.72251   0.22448   0.63264  -0.08120
C          C       0.73094   0.16214   0.67952  -0.16940
C          C       0.70757   0.36764   0.60942   0.55321
C          C       0.40849   0.48757   0.91127  -0.03759
C          C       0.47397   0.53472   0.90652  -0.10299
C          C       0.38279   0.58954   0.97631   0.07612
C          C       0.50486   0.66690   0.95791   0.15768
C          C       0.58767   0.66011   0.95633  -0.17863
C          C       0.63408   0.72589   0.96651  -0.08547
C          C       0.59852   0.79790   0.97927  -0.03635
C          C       0.51550   0.80371   0.98128  -0.07035
C          C       0.46833   0.73872   0.96977  -0.18132
C          C       0.64932   0.86770   0.99085   0.55539
C          C       0.28461   0.49741   0.14975  -0.04748
C          C       0.28685   0.45540   0.21227  -0.09993
C          C       0.21854   0.39135   0.12869   0.09329
C          C       0.23292   0.32440   0.24632   0.16279
C          C       0.22523   0.24919   0.21880  -0.17912
C          C       0.21509   0.18772   0.26624  -0.07662
C          C       0.21385   0.20003   0.34073  -0.03884
C          C       0.22250   0.27552   0.36736  -0.08116
C          C       0.23094   0.33786   0.32048  -0.16945
C          C       0.20757   0.13236   0.39059   0.55296
C          C       0.40847   0.01239   0.41115  -0.03439
C          C       0.47397   0.96525   0.40641  -0.11178
C          C       0.38274   0.91044   0.47613   0.07369
C          C       0.50484   0.83304   0.45774   0.15538
C          C       0.58766   0.83982   0.45622  -0.17994
C          C       0.63405   0.77406   0.46653  -0.08478
C          C       0.59848   0.70209   0.47947  -0.03446
C          C       0.51547   0.69627   0.48132  -0.06998
C          C       0.46832   0.76125   0.46962  -0.18249
C          C       0.64938   0.63238   0.49104   0.55344
C          C       0.28454   0.00259   0.64975  -0.04585
C          C       0.28683   0.04468   0.71228  -0.10244
C          C       0.21854   0.10864   0.62872   0.09330
C          C       0.23294   0.17578   0.74638   0.16272
C          C       0.22524   0.25102   0.71900  -0.18171
C          C       0.21513   0.31256   0.76651  -0.07501
C          C       0.21386   0.30019   0.84103  -0.03465
C          C       0.22251   0.22468   0.86745  -0.08420
C          C       0.23095   0.16234   0.82052  -0.16875
C          C       0.20750   0.36751   0.89150   0.55112
C          C       0.90847   0.48761   0.58885  -0.03371
C          C       0.97397   0.53475   0.59359  -0.10786
C          C       0.88274   0.58955   0.52388   0.07715
C          C       0.00484   0.66695   0.54226   0.15942
C          C       0.08766   0.66018   0.54379  -0.17976
C          C       0.13405   0.72594   0.53347  -0.08460
C          C       0.09848   0.79790   0.52053  -0.03465
C          C       0.01547   0.80372   0.51868  -0.06992
C          C       0.96833   0.73875   0.53039  -0.18229
C          C       0.14938   0.86761   0.50897   0.55366
C          C       0.78454   0.49741   0.35025  -0.04590
C          C       0.78683   0.45531   0.28772  -0.10246
C          C       0.71854   0.39136   0.37128   0.09324
C          C       0.73294   0.32422   0.25362   0.16267
C          C       0.72524   0.24898   0.28100  -0.18160
C          C       0.71513   0.18744   0.23350  -0.07499
C          C       0.71386   0.19981   0.15897  -0.03473
C          C       0.72251   0.27532   0.13255  -0.08422
C          C       0.73095   0.33766   0.17948  -0.16872
C          C       0.70750   0.13249   0.10850   0.55117
N          N       0.64783   0.02236   0.54516  -0.30037
N          N       0.54329   0.09987   0.55233   0.02870
N          N       0.75802   0.95702   0.40163  -0.28738
N          N       0.75528   0.88750   0.30171   0.02946
N          N       0.14783   0.47764   0.45484  -0.30042
N          N       0.04329   0.40013   0.44767   0.02875
N          N       0.25802   0.54298   0.59837  -0.28743
N          N       0.25527   0.61249   0.69830   0.02961
N          N       0.14777   0.02233   0.95503  -0.29785
N          N       0.04326   0.09984   0.94786   0.02739
N          N       0.25794   0.95696   0.09838  -0.28515
N          N       0.25531   0.88762   0.19828   0.02627
N          N       0.64777   0.47767   0.04497  -0.29789
N          N       0.54326   0.40016   0.05214   0.02728
N          N       0.75795   0.54304   0.90162  -0.28495
N          N       0.75531   0.61238   0.80172   0.02637
N          N       0.85223   0.97767   0.04497  -0.29811
N          N       0.95674   0.90016   0.05214   0.02743
N          N       0.74206   0.04304   0.90162  -0.28501
N          N       0.74469   0.11238   0.80172   0.02620
N          N       0.35223   0.52233   0.95503  -0.29776
N          N       0.45674   0.59984   0.94786   0.02736
N          N       0.24206   0.45696   0.09838  -0.28507
N          N       0.24469   0.38762   0.19828   0.02621
N          N       0.35217   0.97764   0.45484  -0.30099
N          N       0.45671   0.90012   0.44767   0.04162
N          N       0.24198   0.04298   0.59837  -0.28746
N          N       0.24473   0.11250   0.69830   0.02944
N          N       0.85217   0.52236   0.54516  -0.30049
N          N       0.95671   0.59987   0.55233   0.02882
N          N       0.74198   0.45702   0.40163  -0.28725
N          N       0.74473   0.38750   0.30171   0.02943
O          O       0.38448   0.42858   0.48362  -0.54525
O          O       0.27716   0.36369   0.52407  -0.58288
O          O       0.79793   0.64521   0.04094  -0.56317
O          O       0.78961   0.56409   0.13481  -0.56823
O          O       0.88448   0.07142   0.51638  -0.54508
O          O       0.77716   0.13631   0.47593  -0.58306
O          O       0.29792   0.85479   0.95906  -0.56294
O          O       0.28961   0.93591   0.86519  -0.56870
O          O       0.88495   0.42916   0.01451  -0.54544
O          O       0.77679   0.36346   0.97758  -0.58413
O          O       0.29781   0.64478   0.45824  -0.56382
O          O       0.28959   0.56414   0.36380  -0.56813
O          O       0.38495   0.07084   0.98549  -0.54554
O          O       0.27679   0.13654   0.02243  -0.58398
O          O       0.79781   0.85522   0.54177  -0.56410
O          O       0.78959   0.93586   0.63620  -0.56837
O          O       0.11505   0.57083   0.98549  -0.54543
O          O       0.22321   0.63654   0.02243  -0.58387
O          O       0.70219   0.35522   0.54177  -0.56415
O          O       0.71041   0.43586   0.63620  -0.56826
O          O       0.61505   0.92916   0.01451  -0.54566
O          O       0.72321   0.86345   0.97758  -0.58401
O          O       0.20219   0.14478   0.45824  -0.56385
O          O       0.21041   0.06414   0.36380  -0.56829
O          O       0.61552   0.57141   0.51638  -0.54516
O          O       0.72285   0.63631   0.47593  -0.58279
O          O       0.20208   0.35479   0.95906  -0.56298
O          O       0.21039   0.43591   0.86519  -0.56859
O          O       0.11552   0.92858   0.48362  -0.54542
O          O       0.22285   0.86368   0.52407  -0.58284
O          O       0.70208   0.14521   0.04094  -0.56322
O          O       0.71039   0.06409   0.13481  -0.56835

