data_crystal

_audit_creation_method 'AiiDA-DDEC plugin'

_cell_length_a        11.07057
_cell_length_b        20.40146
_cell_length_c        23.64609

_cell_angle_alpha     113.27600
_cell_angle_beta     100.96541
_cell_angle_gamma     97.35399

_symmetry_space_group_name_Hall 'P 1'
_symmetry_space_group_name_H-M  'P 1'

loop_
_symmetry_equiv_pos_as_xyz
 'x,y,z'

loop_
_atom_site_label
_atom_site_type_symbol
_atom_site_fract_x
_atom_site_fract_y
_atom_site_fract_z
_atom_site_charge
Mn         Mn      0.41589   0.17183   0.34079   1.20153
Mn         Mn      0.65729   0.24928   0.29134   1.05125
Mn         Mn      0.13293   0.04708   0.29284   1.04412
Mn         Mn      0.86657   0.11778   0.23146   1.08962
Mn         Mn      0.58412   0.82817   0.65920   1.20164
Mn         Mn      0.34271   0.75072   0.70866   1.05121
Mn         Mn      0.86707   0.95292   0.70716   1.04409
Mn         Mn      0.13344   0.88223   0.76855   1.08959
H          H       0.91033   0.37495   0.47940   0.12064
H          H       0.99060   0.45810   0.59700   0.12508
H          H       0.68065   0.34316   0.63198   0.12612
H          H       0.60404   0.25835   0.51446   0.11775
H          H       0.91129   0.57726   0.64945   0.11710
H          H       0.78186   0.66637   0.63907   0.12580
H          H       0.53734   0.60165   0.73802   0.12983
H          H       0.66644   0.51219   0.74847   0.14449
H          H       0.34771   0.04378   0.19392   0.11904
H          H       0.23577   0.91344   0.13013   0.11754
H          H       0.58965   0.84743   0.15349   0.13557
H          H       0.70086   0.97860   0.22146   0.11096
H          H       0.14976   0.83439   0.02100   0.11261
H          H       0.12598   0.84013   0.91614   0.12179
H          H       0.41288   0.71684   0.87793   0.13427
H          H       0.44592   0.71685   0.98509   0.14391
H          H       0.29545   0.86720   0.26407   0.13115
H          H       0.41446   0.76752   0.25226   0.14533
H          H       0.76288   0.93062   0.34939   0.11846
H          H       0.64393   0.02995   0.36106   0.12587
H          H       0.54746   0.71107   0.36372   0.12615
H          H       0.58927   0.74184   0.48089   0.11778
H          H       0.93498   0.89296   0.51962   0.12263
H          H       0.89632   0.86093   0.40248   0.12542
H          H       0.02023   0.24570   0.21969   0.10716
H          H       0.05988   0.30517   0.14929   0.13033
H          H       0.39240   0.21787   0.13077   0.11243
H          H       0.34724   0.15393   0.19641   0.11132
H          H       0.03622   0.26066   0.97689   0.13666
H          H       0.96673   0.15205   0.87116   0.12651
H          H       0.29857   0.07550   0.92013   0.11782
H          H       0.37523   0.18756   0.02317   0.10760
H          H       0.08968   0.62505   0.52060   0.12070
H          H       0.00940   0.54190   0.40301   0.12510
H          H       0.31933   0.65683   0.36801   0.12565
H          H       0.39596   0.74164   0.48552   0.11777
H          H       0.08870   0.42274   0.35055   0.11717
H          H       0.21814   0.33364   0.36093   0.12581
H          H       0.46267   0.39836   0.26199   0.12983
H          H       0.33355   0.48781   0.25153   0.14449
H          H       0.65229   0.95622   0.80608   0.11902
H          H       0.76423   0.08656   0.86987   0.11757
H          H       0.41036   0.15257   0.84651   0.13556
H          H       0.29914   0.02140   0.77854   0.11091
H          H       0.85025   0.16561   0.97900   0.11251
H          H       0.87402   0.15987   0.08386   0.12184
H          H       0.58713   0.28316   0.12207   0.13426
H          H       0.55409   0.28315   0.01491   0.14018
H          H       0.70455   0.13280   0.73593   0.13120
H          H       0.58554   0.23248   0.74773   0.14541
H          H       0.23712   0.06938   0.65061   0.11845
H          H       0.35607   0.97005   0.63894   0.12581
H          H       0.45254   0.28892   0.63629   0.12618
H          H       0.41074   0.25816   0.51911   0.11778
H          H       0.06502   0.10704   0.48038   0.12251
H          H       0.10369   0.13907   0.59752   0.12540
H          H       0.97977   0.75431   0.78031   0.10711
H          H       0.94012   0.69482   0.85070   0.13026
H          H       0.60760   0.78212   0.86923   0.11249
H          H       0.65276   0.84607   0.80359   0.11130
H          H       0.96378   0.73934   0.02312   0.13661
H          H       0.03326   0.84795   0.12884   0.12655
H          H       0.70143   0.92451   0.07987   0.11788
H          H       0.62476   0.81244   0.97683   0.10754
C          C       0.69606   0.26909   0.42023   0.59850
C          C       0.75079   0.31337   0.49024  -0.03738
C          C       0.86132   0.36853   0.51322  -0.08320
C          C       0.90501   0.41507   0.57818  -0.10407
C          C       0.83661   0.40645   0.61987  -0.05902
C          C       0.72946   0.34959   0.59801  -0.10062
C          C       0.68727   0.30280   0.53310  -0.08418
C          C       0.79266   0.53852   0.69763  -0.06377
C          C       0.82803   0.58215   0.66756  -0.10760
C          C       0.75628   0.63148   0.66181  -0.08542
C          C       0.64960   0.63711   0.68609  -0.04499
C          C       0.61764   0.59468   0.71775  -0.07083
C          C       0.68919   0.54508   0.72363  -0.09775
C          C       0.57205   0.68969   0.68044   0.60028
C          C       0.59611   0.09737   0.24804   0.60142
C          C       0.53197   0.01956   0.21012  -0.05482
C          C       0.40042   0.00100   0.18427  -0.07897
C          C       0.33789   0.92819   0.14835  -0.10352
C          C       0.40758   0.87375   0.13650  -0.05837
C          C       0.53823   0.89096   0.16228  -0.09598
C          C       0.59989   0.96416   0.19996  -0.07659
C          C       0.30123   0.77706   0.00951  -0.06255
C          C       0.20921   0.81068   0.99027  -0.10190
C          C       0.19526   0.81339   0.93164  -0.08381
C          C       0.26994   0.78060   0.89128  -0.04647
C          C       0.35789   0.74426   0.90993  -0.08134
C          C       0.37562   0.74345   0.96981  -0.08767
C          C       0.25452   0.78606   0.82943   0.60919
C          C       0.39077   0.01241   0.31980   0.59751
C          C       0.46264   0.95425   0.31455  -0.04293
C          C       0.39726   0.88053   0.28344  -0.07821
C          C       0.46280   0.82509   0.27682  -0.09616
C          C       0.59378   0.84432   0.30171  -0.06431
C          C       0.66064   0.91757   0.33179  -0.10722
C          C       0.59468   0.97261   0.33819  -0.08478
C          C       0.71705   0.78720   0.37777  -0.06029
C          C       0.63096   0.75127   0.39828  -0.09724
C          C       0.65407   0.76828   0.46301  -0.08707
C          C       0.76129   0.82133   0.50698  -0.03666
C          C       0.85045   0.85374   0.48521  -0.08649
C          C       0.82864   0.83652   0.42039  -0.10438
C          C       0.77435   0.84603   0.57672   0.60126
C          C       0.15470   0.15405   0.24916   0.56323
C          C       0.17760   0.19246   0.21057  -0.06520
C          C       0.09848   0.23706   0.19823  -0.08486
C          C       0.12082   0.27116   0.15940  -0.10233
C          C       0.22569   0.26304   0.13413  -0.07517
C          C       0.30844   0.22157   0.14824  -0.10260
C          C       0.28354   0.18595   0.18528  -0.09407
C          C       0.20745   0.22922   0.00690  -0.06303
C          C       0.09303   0.21999   0.96422  -0.09150
C          C       0.05372   0.15872   0.90532  -0.08186
C          C       0.12606   0.10550   0.89023  -0.05260
C          C       0.24206   0.11623   0.93314  -0.08773
C          C       0.28410   0.17845   0.99084  -0.10615
C          C       0.08074   0.03707   0.83044   0.60150
C          C       0.30394   0.73091   0.57977   0.59840
C          C       0.24922   0.68662   0.50976  -0.03731
C          C       0.13869   0.63147   0.48678  -0.08335
C          C       0.09499   0.58493   0.42181  -0.10407
C          C       0.16338   0.59355   0.38013  -0.05920
C          C       0.27053   0.65040   0.40198  -0.09981
C          C       0.31273   0.69720   0.46689  -0.08425
C          C       0.20733   0.46148   0.30237  -0.06371
C          C       0.17196   0.41785   0.33244  -0.10776
C          C       0.24372   0.36852   0.33819  -0.08534
C          C       0.35041   0.36290   0.31391  -0.04501
C          C       0.38236   0.40533   0.28226  -0.07085
C          C       0.31081   0.45493   0.27637  -0.09774
C          C       0.42795   0.31031   0.31956   0.60034
C          C       0.40389   0.90263   0.75196   0.60144
C          C       0.46803   0.98044   0.78988  -0.05483
C          C       0.59958  -0.00100   0.81573  -0.07901
C          C       0.66211   0.07181   0.85165  -0.10353
C          C       0.59242   0.12625   0.86350  -0.05837
C          C       0.46177   0.10904   0.83772  -0.09588
C          C       0.40011   0.03584   0.80004  -0.07666
C          C       0.69877   0.22294   0.99049  -0.06241
C          C       0.79080   0.18932   0.00973  -0.10185
C          C       0.80475   0.18661   0.06836  -0.08386
C          C       0.73007   0.21941   0.10872  -0.04645
C          C       0.64212   0.25575   0.09007  -0.08091
C          C       0.62438   0.25655   0.03019  -0.08478
C          C       0.74548   0.21395   0.17057   0.60872
C          C       0.60923   0.98759   0.68020   0.59740
C          C       0.53736   0.04576   0.68545  -0.04305
C          C       0.60274   0.11948   0.71656  -0.07820
C          C       0.53720   0.17491   0.72318  -0.09616
C          C       0.40622   0.15568   0.69829  -0.06420
C          C       0.33936   0.08243   0.66821  -0.10738
C          C       0.40532   0.02739   0.66181  -0.08467
C          C       0.28295   0.21279   0.62223  -0.06042
C          C       0.36905   0.24873   0.60172  -0.09712
C          C       0.34594   0.23172   0.53699  -0.08695
C          C       0.23872   0.17867   0.49302  -0.03699
C          C       0.14956   0.14626   0.51479  -0.08630
C          C       0.17137   0.16347   0.57960  -0.10429
C          C       0.22567   0.15396   0.42328   0.60144
C          C       0.84530   0.84596   0.75085   0.56309
C          C       0.82241   0.80754   0.78943  -0.06506
C          C       0.90152   0.76294   0.80178  -0.08488
C          C       0.87918   0.72884   0.84060  -0.10232
C          C       0.77432   0.73696   0.86588  -0.07510
C          C       0.69157   0.77843   0.85176  -0.10276
C          C       0.71647   0.81405   0.81472  -0.09393
C          C       0.79255   0.77078   0.99310  -0.06300
C          C       0.90696   0.78001   0.03578  -0.09154
C          C       0.94627   0.84128   0.09468  -0.08199
C          C       0.87394   0.89450   0.10977  -0.05241
C          C       0.75794   0.88377   0.06686  -0.08780
C          C       0.71589   0.82155   0.00916  -0.10624
C          C       0.91926   0.96293   0.16957   0.60142
S          S       0.88201   0.47267   0.70164   0.95354
S          S       0.32469   0.78055   0.08771   0.95190
S          S       0.67809   0.77373   0.29637   0.95409
S          S       0.25652   0.30528   0.08378   0.95200
S          S       0.11798   0.52733   0.29835   0.95339
S          S       0.67531   0.21945   0.91228   0.95191
S          S       0.32190   0.22626   0.70362   0.95416
S          S       0.74348   0.69471   0.91622   0.95224
O          O       0.59210   0.22243   0.40196  -0.56783
O          O       0.68567   0.81711   0.59287  -0.57221
O          O       0.45472   0.07707   0.33550  -0.55811
O          O       0.61833   0.73676   0.66225  -0.55873
O          O       0.23579   0.11714   0.26301  -0.60547
O          O       0.52925   0.14649   0.25828  -0.58576
O          O       0.75545   0.28204   0.38258  -0.56300
O          O       0.46657   0.68495   0.69430  -0.54694
O          O       0.31145   0.74975   0.78943  -0.55389
O          O       0.71711   0.11733   0.26943  -0.59055
O          O       0.87152   0.89629   0.61588  -0.56566
O          O       0.27123   0.99404   0.30731  -0.54403
O          O       0.98575   0.03205   0.78733  -0.56227
O          O       0.05360   0.15158   0.26895  -0.59635
O          O       0.18390   0.82770   0.82005  -0.59198
O          O       0.14033   0.98596   0.82569  -0.59478
O          O       0.01490   0.50717   0.71662  -0.50375
O          O       0.83311   0.43866   0.73894  -0.48792
O          O       0.40876   0.73299   0.09360  -0.47615
O          O       0.20148   0.77388   0.10148  -0.50194
O          O       0.79487   0.79309   0.28088  -0.50326
O          O       0.58865   0.70348   0.25839  -0.48718
O          O       0.39381   0.32871   0.09876  -0.51070
O          O       0.17380   0.35568   0.08579  -0.48386
O          O       0.40790   0.77758   0.59804  -0.56784
O          O       0.31438   0.18287   0.40713  -0.57212
O          O       0.54528   0.92293   0.66448  -0.55812
O          O       0.38167   0.26324   0.33775  -0.55874
O          O       0.76421   0.88286   0.73699  -0.60540
O          O       0.47075   0.85352   0.74172  -0.58583
O          O       0.24455   0.71796   0.61741  -0.56292
O          O       0.53342   0.31505   0.30570  -0.54695
O          O       0.68854   0.25025   0.21056  -0.55370
O          O       0.28289   0.88267   0.73056  -0.59064
O          O       0.12849   0.10372   0.38412  -0.56578
O          O       0.72878   0.00597   0.69270  -0.54390
O          O       0.01426   0.96795   0.21267  -0.56216
O          O       0.94640   0.84843   0.73106  -0.59630
O          O       0.81611   0.17230   0.17996  -0.59183
O          O       0.85966   0.01403   0.17433  -0.59483
O          O       0.98509   0.49282   0.28337  -0.50385
O          O       0.16686   0.56133   0.26104  -0.48780
O          O       0.59124   0.26701   0.90640  -0.47592
O          O       0.79853   0.22612   0.89851  -0.50189
O          O       0.20511   0.20689   0.71911  -0.50332
O          O       0.41134   0.29652   0.74161  -0.48706
O          O       0.60619   0.67128   0.90124  -0.51090
O          O       0.82620   0.64432   0.91422  -0.48397

