data_crystal

_audit_creation_method 'AiiDA-DDEC plugin'

_cell_length_a         9.41640
_cell_length_b        18.19014
_cell_length_c        18.59433

_cell_angle_alpha     61.79409
_cell_angle_beta     83.91304
_cell_angle_gamma     86.27103

_symmetry_space_group_name_Hall 'P 1'
_symmetry_space_group_name_H-M  'P 1'

loop_
_symmetry_equiv_pos_as_xyz
 'x,y,z'

loop_
_atom_site_label
_atom_site_type_symbol
_atom_site_fract_x
_atom_site_fract_y
_atom_site_fract_z
_atom_site_charge
Zn         Zn      0.33988   0.07942   0.64389   0.87750
Zn         Zn      0.51770   0.50031   0.74535   0.83215
Zn         Zn      0.66012   0.92057   0.35611   0.87750
Zn         Zn      0.64049   0.06989   0.13123   0.87593
Zn         Zn      0.35951   0.93011   0.86877   0.87590
Zn         Zn      0.48230   0.49968   0.25465   0.83220
H          H       0.12735   0.04700   0.89910   0.13188
H          H       0.43154   0.59702   0.48697   0.16877
H          H       0.80841   0.88696   0.58750   0.09996
H          H       0.06645   0.85274   0.59137   0.09489
H          H       0.27421   0.43898   0.68541   0.12349
H          H       0.76758   0.32046   0.55193   0.11348
H          H       0.44944   0.26625   0.16402   0.11520
H          H       0.09033   0.19904   0.95337   0.12300
H          H       0.29287   0.99519   0.38955   0.12674
H          H       0.48098   0.72263   0.33845   0.11507
H          H       0.27013   0.18523   0.03997   0.08907
H          H       0.02159   0.60788   0.85545   0.11116
H          H       0.45293   0.33597   0.50054   0.17347
H          H       0.39696   0.23549   0.06329   0.10132
H          H       0.44617   0.44503   0.43417   0.17325
H          H       0.67018   0.05549   0.88698   0.10472
H          H       0.97841   0.39211   0.14455   0.11115
H          H       0.50401   0.91669   0.58492   0.12923
H          H       0.07137   0.21336   0.21206   0.09488
H          H       0.08381   0.34736   0.69077   0.11527
H          H       0.78325   0.68316   0.90030   0.11912
H          H       0.32982   0.94450   0.11303   0.10476
H          H       0.91617   0.70531   0.94787   0.10350
H          H       0.21675   0.31684   0.09970   0.11890
H          H       0.19159   0.11303   0.41250   0.09985
H          H       0.51902   0.27736   0.66155   0.11512
H          H       0.13515   0.72503   0.87425   0.16157
H          H       0.60304   0.76451   0.93671   0.10131
H          H       0.03139   0.27255   0.40348   0.12483
H          H       0.02918   0.75978   0.34563   0.16205
H          H       0.79338   0.20437   0.22534   0.15903
H          H       0.68455   0.32490   0.84288   0.12558
H          H       0.92863   0.78663   0.78794   0.09505
H          H       0.07223   0.16940   0.73580   0.15651
H          H       0.97081   0.24021   0.65437   0.16198
H          H       0.27066   0.82998   0.47819   0.10368
H          H       0.56846   0.40297   0.51303   0.16870
H          H       0.49599   0.08330   0.41508   0.12937
H          H       0.84326   0.77633   0.36524   0.17790
H          H       0.09204   0.72451   0.48674   0.09887
H          H       0.93355   0.14725   0.40863   0.09462
H          H       0.76542   0.06527   0.37991   0.12927
H          H       0.22320   0.15648   0.20106   0.10199
H          H       0.87943   0.69440   0.73890   0.09684
H          H       0.76431   0.17779   0.68098   0.10146
H          H       0.68108   0.09491   0.67955   0.09969
H          H       0.73744   0.44857   0.16613   0.12594
H          H       0.55056   0.73374   0.83598   0.11514
H          H       0.44565   0.55027   0.08073   0.17159
H          H       0.43415   0.40237   0.01002   0.17725
H          H       0.45105   0.10134   0.91746   0.12892
H          H       0.26256   0.55143   0.83387   0.12596
H          H       0.23458   0.93472   0.62009   0.12922
H          H       0.70643   0.22157   0.13713   0.16596
H          H       0.72933   0.17002   0.52181   0.10386
H          H       0.87265   0.95299   0.10091   0.13205
H          H       0.29357   0.77843   0.86287   0.16592
H          H       0.56585   0.59762   0.98998   0.17731
H          H       0.99358   0.22973   0.82201   0.09445
H          H       0.54707   0.66402   0.49946   0.17316
H          H       0.90967   0.80095   0.04663   0.12283
H          H       0.57230   0.34160   0.98834   0.17779
H          H       0.90795   0.27548   0.51327   0.09877
H          H       0.11593   0.89431   0.08569   0.10834
H          H       0.96861   0.72745   0.59652   0.12477
H          H       0.55435   0.44973   0.91927   0.17154
H          H       0.55383   0.55496   0.56583   0.17340
H          H       0.00642   0.77026   0.17799   0.09425
H          H       0.40196   0.78621   0.43431   0.11179
H          H       0.15674   0.22367   0.63476   0.17779
H          H       0.92777   0.83059   0.26421   0.15651
H          H       0.88407   0.10568   0.91431   0.10811
H          H       0.72579   0.56102   0.31459   0.12364
H          H       0.08383   0.29468   0.05213   0.10351
H          H       0.23242   0.67953   0.44807   0.11367
H          H       0.59803   0.21379   0.56569   0.11172
H          H       0.12057   0.30560   0.26110   0.09702
H          H       0.70713   0.00481   0.61045   0.12675
H          H       0.34705   0.33179   0.35754   0.12072
H          H       0.77680   0.84352   0.79894   0.10191
H          H       0.42770   0.65840   0.01166   0.17763
H          H       0.31892   0.90509   0.32045   0.09951
H          H       0.91619   0.65264   0.30923   0.11515
H          H       0.86485   0.27496   0.12575   0.16144
H          H       0.31544   0.67509   0.15712   0.12574
H          H       0.31372   0.05721   0.15392   0.12162
H          H       0.20662   0.79562   0.77466   0.15906
H          H       0.23569   0.82221   0.31902   0.10169
H          H       0.68628   0.94279   0.84608   0.12174
H          H       0.72987   0.81477   0.96003   0.08881
H          H       0.54894   0.89865   0.08254   0.12880
H          H       0.65294   0.66820   0.64246   0.12093
C          C       0.38689   0.28690   0.33676  -0.09885
C          C       0.13001   0.25094   0.89572  -0.16750
C          C       0.66001   0.39294   0.67458   0.57530
C          C       0.87863   0.92356   0.60038  -0.08551
C          C       0.59931   0.69049   0.74682  -0.05091
C          C       0.53047   0.85356   0.63024  -0.09770
C          C       0.36262   0.39607   0.18819   0.56496
C          C       0.41433   0.12255   0.76708   0.59384
C          C       0.46953   0.14643   0.36976  -0.09766
C          C       0.61001   0.82087   0.51511   0.54687
C          C       0.40068   0.30951   0.25318  -0.05106
C          C       0.87923   0.05101   0.38139  -0.15813
C          C       0.06630   0.62254   0.79383  -0.09554
C          C       0.93370   0.37745   0.20617  -0.09550
C          C       0.71338   0.20207   0.55953  -0.21061
C          C       0.95917   0.03930   0.13432   0.13676
C          C       0.02867   0.12357   0.65450   0.37267
C          C       0.86947   0.80684   0.82973  -0.05103
C          C       0.08344   0.06906   0.14780   0.07772
C          C       0.37565   0.71333   0.17354  -0.10527
C          C       0.23495   0.30393   0.89163   0.08338
C          C       0.17669   0.26822   0.08803  -0.22020
C          C       0.49294   0.16025   0.86904  -0.09988
C          C       0.55675   0.75117   0.77120  -0.10107
C          C       0.62435   0.28666   0.82646  -0.10535
C          C       0.01540   0.32821   0.27253  -0.08554
C          C       0.13053   0.19316   0.17028  -0.05093
C          C       0.39700   0.68794   0.25559  -0.05267
C          C       0.52125   0.83236   0.71351  -0.06139
C          C       0.39643   0.82084   0.02438   0.54706
C          C       0.89404   0.14670   0.15518   0.37742
C          C       0.89650   0.05762   0.89491  -0.10068
C          C       0.52843   0.10352   0.26065   0.58292
C          C       0.63737   0.60392   0.81181   0.56487
C          C       0.12077   0.94899   0.61861  -0.15800
C          C       0.58567   0.87745   0.23292   0.59388
C          C       0.05748   0.19344   0.67054  -0.49164
C          C       0.12137   0.07644   0.39962  -0.08578
C          C       0.70668   0.75568   0.96176  -0.05042
C          C       0.79176   0.28515   0.51758  -0.07190
C          C       0.80978   0.21539   0.16158  -0.48287
C          C       0.77367   0.02876   0.87961  -0.08247
C          C       0.12866   0.33539   0.74693  -0.09111
C          C       0.44325   0.24882   0.22880  -0.10102
C          C       0.20062   0.59049   0.78243  -0.16032
C          C       0.52445   0.81645   0.21283  -0.06087
C          C       0.75932   0.14428   0.64545  -0.05177
C          C       0.97418   0.09589   0.39750  -0.09493
C          C       0.94252   0.80656   0.32946  -0.49159
C          C       0.22633   0.97123   0.12039  -0.08211
C          C       0.04083   0.96070   0.86568   0.13660
C          C       0.08371   0.96581   0.37032   0.07498
C          C       0.07715   0.26844   0.82173  -0.09401
C          C       0.87134   0.66460   0.25307  -0.09099
C          C       0.60300   0.31205   0.74441  -0.05294
C          C       0.28681   0.37154   0.81710   0.13491
C          C       0.42884   0.78987   0.11135  -0.04278
C          C       0.58050   0.79474   0.60477  -0.03939
C          C       0.23456   0.38754   0.74330  -0.15734
C          C       0.33999   0.60705   0.32542   0.57502
C          C       0.74891   0.39113   0.29779   0.13447
C          C       0.96600   0.30896   0.35283  -0.17034
C          C       0.50526   0.60678   0.03920  -0.51483
C          C       0.20824   0.71484   0.48242  -0.07186
C          C       0.51821   0.39250   0.46792  -0.49738
C          C       0.02582   0.90410   0.60250  -0.09508
C          C       0.10350   0.94237   0.10509  -0.10077
C          C       0.21866   0.03458   0.14282  -0.17621
C          C       0.10595   0.85329   0.84482   0.37735
C          C       0.16861   0.65902   0.63606   0.07823
C          C       0.96786   0.97500   0.11266  -0.16642
C          C       0.91656   0.93094   0.85220   0.07777
C          C       0.47555   0.18354   0.78717  -0.06080
C          C       0.47875   0.16763   0.28649  -0.06139
C          C       0.93626   0.98549   0.36748   0.14232
C          C       0.97132   0.87642   0.34550   0.37289
C          C       0.17945   0.01089   0.38616  -0.17220
C          C       0.60040   0.62802   0.08478   0.38946
C          C       0.48179   0.60749   0.53208  -0.49714
C          C       0.37114   0.61748   0.58992   0.38013
C          C       0.98460   0.67178   0.72747  -0.08541
C          C       0.06374   0.01451   0.63252   0.14230
C          C       0.03400   0.69103   0.64717  -0.17031
C          C       0.86999   0.74906   0.10428  -0.16745
C          C       0.92285   0.73156   0.17827  -0.09410
C          C       0.46907   0.74064   0.27470  -0.10051
C          C       0.62886   0.38252   0.41008   0.38008
C          C       0.71319   0.62846   0.18290   0.13501
C          C       0.61311   0.71309   0.66324  -0.09892
C          C       0.38999   0.17912   0.48489   0.54680
C          C       0.82055   0.98910   0.61384  -0.17239
C          C       0.76505   0.69606   0.10837   0.08325
C          C       0.39960   0.37197   0.91522   0.38935
C          C       0.76544   0.61246   0.25670  -0.15745
C          C       0.47157   0.89648   0.73935   0.58289
C          C       0.03214   0.02499   0.88734  -0.16644
C          C       0.19022   0.78460   0.83842  -0.48266
C          C       0.28662   0.79793   0.44047  -0.21082
C          C       0.50706   0.83974   0.13096  -0.09989
C          C       0.53093   0.25936   0.72530  -0.10039
C          C       0.57116   0.21012   0.88865  -0.04270
C          C       0.29332   0.24432   0.03824  -0.05044
C          C       0.79938   0.40950   0.21757  -0.16036
C          C       0.49474   0.39321   0.96080  -0.51514
C          C       0.60356   0.17915   0.97562   0.54695
C          C       0.83139   0.34097   0.36394   0.07833
C          C       0.24068   0.85572   0.35455  -0.05176
C          C       0.82331   0.73177   0.91197  -0.22013
C          C       0.41950   0.20525   0.39523  -0.03948
C          C       0.25109   0.60887   0.70221   0.13448
C          C       0.78134   0.96542   0.85718  -0.17583
C          C       0.91629   0.03418   0.62968   0.07524
N          N       0.12997   0.07100   0.64843  -0.41683
N          N       0.24735   0.66345   0.56640  -0.05283
N          N       0.10227   0.89692   0.35591  -0.06526
N          N       0.75265   0.33655   0.43361  -0.05281
N          N       0.84301   0.08811   0.14090  -0.41552
N          N       0.87003   0.92900   0.35157  -0.41683
N          N       0.96147   0.86342   0.83901  -0.06844
N          N       0.89773   0.10308   0.64409  -0.06535
N          N       0.30890   0.30572   0.95179  -0.06498
N          N       0.69110   0.69428   0.04821  -0.06504
N          N       0.03853   0.13657   0.16099  -0.06858
N          N       0.62398   0.41614   0.32856  -0.42344
N          N       0.38904   0.41231   0.83392  -0.42503
N          N       0.61096   0.58768   0.16608  -0.42486
N          N       0.15699   0.91188   0.85910  -0.41563
N          N       0.37601   0.58386   0.67144  -0.42347
O          O       0.56457   0.89537   0.46545  -0.56428
O          O       0.35736   0.45635   0.20710  -0.57404
O          O       0.63602   0.94468   0.17420  -0.56007
O          O       0.57122   0.10125   0.02507  -0.55620
O          O       0.65961   0.22531   0.99718  -0.55125
O          O       0.33405   0.40492   0.12047  -0.53101
O          O       0.59923   0.04182   0.30998  -0.55807
O          O       0.42877   0.89874   0.97493  -0.55653
O          O       0.49955   0.88453   0.81044  -0.55898
O          O       0.34039   0.77468   0.00282  -0.55102
O          O       0.64984   0.45957   0.68389  -0.56972
O          O       0.57858   0.85855   0.30906  -0.54854
O          O       0.28568   0.60748   0.38942  -0.54033
O          O       0.66595   0.59508   0.87953  -0.53115
O          O       0.32093   0.22632   0.50844  -0.55304
O          O       0.40077   0.95818   0.69002  -0.55811
O          O       0.35015   0.54043   0.31611  -0.56926
O          O       0.67907   0.77368   0.49156  -0.55276
O          O       0.64263   0.54364   0.79290  -0.57370
O          O       0.50045   0.11546   0.18956  -0.55894
O          O       0.43543   0.10463   0.53455  -0.56390
O          O       0.36398   0.05532   0.82580  -0.55994
O          O       0.42142   0.14145   0.69094  -0.54859
O          O       0.71431   0.39251   0.61058  -0.54021

