data_crystal

_audit_creation_method 'AiiDA-DDEC plugin'

_cell_length_a        14.54017
_cell_length_b        16.76125
_cell_length_c        19.61942

_cell_angle_alpha     104.86859
_cell_angle_beta     96.42218
_cell_angle_gamma     94.53310

_symmetry_space_group_name_Hall 'P 1'
_symmetry_space_group_name_H-M  'P 1'

loop_
_symmetry_equiv_pos_as_xyz
 'x,y,z'

loop_
_atom_site_label
_atom_site_type_symbol
_atom_site_fract_x
_atom_site_fract_y
_atom_site_fract_z
_atom_site_charge
Gd         Gd      0.88167   0.95601   0.93772   1.97452
Gd         Gd      0.36620   0.45931   0.49423   2.00185
Gd         Gd      0.11833   0.04399   0.06228   1.97458
Gd         Gd      0.63380   0.54069   0.50578   2.00189
H          H       0.91834   0.13060   0.81487   0.14299
H          H       0.17252   0.24343   0.95209   0.14078
H          H       0.24545   0.23957   0.58638   0.15237
H          H       0.14346   0.47441   0.67237   0.14985
H          H       0.78178   0.10400   0.06608   0.15775
H          H       0.93577   0.08577   0.26230   0.15691
H          H       0.65940   0.39865   0.37513   0.14004
H          H       0.44481   0.19185   0.33941   0.15419
H          H       0.71760   0.43292   0.67852   0.13927
H          H       0.42708   0.35983   0.68048   0.14212
H          H       0.71054   0.02897   0.74984   0.15000
H          H       0.69127   0.19143   0.95584   0.14868
H          H       0.71067   0.85335   0.79959   0.10503
H          H       0.65100   0.71574   0.71433   0.11971
H          H       0.71190   0.58673   0.73642   0.12154
H          H       0.88943   0.74556   0.91993   0.09522
H          H       0.90191   0.59619   0.89009   0.05805
H          H       0.37896   0.65235   0.47058   0.08609
H          H       0.29984   0.77515   0.45970   0.13981
H          H       0.12773   0.77105   0.46740   0.12217
H          H       0.13428   0.52508   0.49793   0.11305
H          H       0.98902   0.70431   0.48385   0.04865
H          H       0.08166   0.86940   0.18513   0.14302
H          H       0.82748   0.75657   0.04791   0.14063
H          H       0.75455   0.76043   0.41363   0.15243
H          H       0.85654   0.52559   0.32763   0.14986
H          H       0.21822   0.89600   0.93392   0.15796
H          H       0.06423   0.91423   0.73770   0.15677
H          H       0.34060   0.60135   0.62488   0.13999
H          H       0.55519   0.80815   0.66059   0.15418
H          H       0.28240   0.56708   0.32148   0.13934
H          H       0.57292   0.64017   0.31952   0.14216
H          H       0.28946   0.97103   0.25017   0.15001
H          H       0.30873   0.80857   0.04416   0.14848
H          H       0.28933   0.14665   0.20042   0.10500
H          H       0.34900   0.28427   0.28567   0.11988
H          H       0.28811   0.41327   0.26358   0.12170
H          H       0.11057   0.25445   0.08008   0.09944
H          H       0.09809   0.40381   0.10991   0.05792
H          H       0.62104   0.34766   0.52942   0.08613
H          H       0.70016   0.22485   0.54031   0.13979
H          H       0.87228   0.22895   0.53260   0.12219
H          H       0.86572   0.47492   0.50207   0.11304
H          H       0.01098   0.29569   0.51616   0.04867
C          C       0.02160   0.12987   0.93886   0.64434
C          C       0.04247   0.18156   0.88958  -0.02734
C          C       0.98309   0.17154   0.82623  -0.08791
C          C       0.00891   0.21129   0.77603   0.02566
C          C       0.09283   0.26420   0.78720   0.04673
C          C       0.14804   0.27614   0.85368   0.03710
C          C       0.12496   0.23499   0.90335  -0.09978
C          C       0.12734   0.29765   0.73002   0.02206
C          C       0.17548   0.24938   0.67869   0.03820
C          C       0.21003   0.27945   0.62559  -0.10348
C          C       0.20076   0.36130   0.62391   0.00324
C          C       0.15225   0.41079   0.67323  -0.10315
C          C       0.11505   0.37821   0.72393   0.03931
C          C       0.24549   0.39641   0.57130   0.57154
C          C       0.94997   0.07100   0.12294   0.61286
C          C       0.86716   0.09014   0.15970  -0.00356
C          C       0.78722   0.10823   0.12277  -0.10551
C          C       0.71542   0.13691   0.16012   0.04227
C          C       0.71838   0.14696   0.23366   0.01304
C          C       0.79882   0.12477   0.26817   0.03279
C          C       0.87314   0.09824   0.23281  -0.09591
C          C       0.65438   0.19775   0.27587   0.01052
C          C       0.68311   0.28253   0.30733   0.03473
C          C       0.63135   0.33401   0.35178  -0.11182
C          C       0.54505   0.30150   0.36390  -0.00698
C          C       0.51203   0.21813   0.33098  -0.11535
C          C       0.56681   0.16809   0.28866   0.05192
C          C       0.48785   0.35390   0.41205   0.61331
C          C       0.54252   0.45235   0.62255   0.64161
C          C       0.56882   0.40297   0.67380  -0.03162
C          C       0.66266   0.39712   0.69465  -0.09894
C          C       0.68644   0.34285   0.73470   0.04194
C          C       0.61964   0.29190   0.75589   0.03959
C          C       0.52588   0.30203   0.73615   0.02394
C          C       0.50035   0.35597   0.69586  -0.09018
C          C       0.64721   0.22630   0.79075   0.03069
C          C       0.66510   0.14769   0.75053   0.02479
C          C       0.69527   0.08779   0.78260  -0.09154
C          C       0.70660   0.10293   0.85652  -0.00026
C          C       0.68525   0.17836   0.89818  -0.09134
C          C       0.65718   0.23831   0.86516   0.03563
C          C       0.74598   0.03863   0.88775   0.57456
C          C       0.73603   0.79644   0.80719   0.12271
C          C       0.70227   0.71930   0.76010  -0.12048
C          C       0.73661   0.64821   0.77158  -0.02838
C          C       0.80530   0.65685   0.83003  -0.03748
C          C       0.83605   0.73646   0.87415   0.07044
C          C       0.84417   0.58324   0.84541   0.27116
C          C       0.30478   0.65221   0.47349   0.09985
C          C       0.26055   0.72121   0.46798  -0.11755
C          C       0.16538   0.71863   0.47227  -0.03780
C          C       0.11866   0.64738   0.48286  -0.03504
C          C       0.16913   0.58046   0.48840   0.10963
C          C       0.01770   0.64616   0.48853   0.26825
C          C       0.97840   0.87013   0.06115   0.64439
C          C       0.95754   0.81844   0.11042  -0.02738
C          C       0.01691   0.82847   0.17377  -0.08681
C          C       0.99109   0.78871   0.22397   0.02237
C          C       0.90717   0.73580   0.21280   0.04785
C          C       0.85196   0.72386   0.14632   0.03706
C          C       0.87504   0.76501   0.09665  -0.09976
C          C       0.87266   0.70235   0.26998   0.02207
C          C       0.82452   0.75063   0.32131   0.03816
C          C       0.78997   0.72055   0.37441  -0.10342
C          C       0.79924   0.63871   0.37610   0.00318
C          C       0.84775   0.58921   0.32678  -0.10310
C          C       0.88495   0.62179   0.27608   0.03934
C          C       0.75451   0.60359   0.42870   0.57162
C          C       0.05004   0.92900   0.87706   0.61284
C          C       0.13284   0.90986   0.84030  -0.00337
C          C       0.21278   0.89177   0.87723  -0.10565
C          C       0.28458   0.86309   0.83988   0.04226
C          C       0.28162   0.85304   0.76634   0.01295
C          C       0.20118   0.87523   0.73183   0.03280
C          C       0.12686   0.90176   0.76719  -0.09597
C          C       0.34562   0.80225   0.72413   0.01060
C          C       0.31689   0.71747   0.69268   0.03474
C          C       0.36865   0.66599   0.64822  -0.11185
C          C       0.45496   0.69850   0.63611  -0.00698
C          C       0.48797   0.78187   0.66903  -0.11533
C          C       0.43319   0.83191   0.71134   0.05198
C          C       0.51215   0.64610   0.58796   0.61319
C          C       0.45748   0.54765   0.37746   0.64162
C          C       0.43118   0.59703   0.32621  -0.03159
C          C       0.33734   0.60288   0.30535  -0.09905
C          C       0.31356   0.65716   0.26530   0.04196
C          C       0.38037   0.70810   0.24412   0.03976
C          C       0.47413   0.69798   0.26385   0.02380
C          C       0.49965   0.64403   0.30415  -0.09009
C          C       0.35279   0.77370   0.20926   0.03053
C          C       0.33490   0.85231   0.24947   0.02506
C          C       0.30473   0.91221   0.21741  -0.09155
C          C       0.29340   0.89707   0.14349  -0.00040
C          C       0.31476   0.82164   0.10182  -0.09130
C          C       0.34283   0.76169   0.13485   0.03567
C          C       0.25402   0.96137   0.11225   0.57497
C          C       0.26397   0.20356   0.19281   0.12292
C          C       0.29773   0.28070   0.23990  -0.12038
C          C       0.26340   0.35179   0.22842  -0.02847
C          C       0.19470   0.34315   0.16997  -0.03761
C          C       0.16395   0.26354   0.12586   0.06701
C          C       0.15583   0.41676   0.15459   0.27098
C          C       0.69522   0.34779   0.52651   0.09981
C          C       0.73945   0.27880   0.53202  -0.11754
C          C       0.83462   0.28137   0.52773  -0.03788
C          C       0.88134   0.35262   0.51714  -0.03490
C          C       0.83087   0.41954   0.51160   0.10967
C          C       0.98231   0.35384   0.51147   0.26826
N          N       0.94555   0.19259   0.70833   0.53497
N          N       0.23641   0.33157   0.87319   0.52686
N          N       0.18772   0.16170   0.67685   0.52251
N          N       0.06356   0.43307   0.77450   0.53000
N          N       0.63783   0.16445   0.12006   0.52465
N          N       0.80878   0.13369   0.34577   0.52529
N          N       0.77358   0.32070   0.29549   0.51641
N          N       0.53047   0.08030   0.25642   0.52419
N          N       0.78614   0.33548   0.75084   0.53426
N          N       0.44939   0.25325   0.75621   0.53360
N          N       0.65112   0.12331   0.67157   0.53477
N          N       0.63885   0.31827   0.91191   0.52060
N          N       0.80216   0.80591   0.86394  -0.34999
N          N       0.26096   0.58208   0.48323  -0.36778
N          N       0.05445   0.80741   0.29168   0.53584
N          N       0.76360   0.66843   0.12682   0.52683
N          N       0.81228   0.83830   0.32316   0.52236
N          N       0.93644   0.56693   0.22550   0.53001
N          N       0.36217   0.83555   0.87994   0.52479
N          N       0.19122   0.86632   0.65423   0.52544
N          N       0.22642   0.67930   0.70451   0.51620
N          N       0.46953   0.91970   0.74359   0.52405
N          N       0.21386   0.66452   0.24917   0.53425
N          N       0.55061   0.74675   0.24380   0.53358
N          N       0.34888   0.87669   0.32844   0.53453
N          N       0.36115   0.68173   0.08809   0.52064
N          N       0.19785   0.19409   0.13606  -0.35040
N          N       0.73904   0.41792   0.51677  -0.36782
O          O       0.94544   0.08295   0.92256  -0.63173
O          O       0.08360   0.13475   0.99217  -0.67518
O          O       0.27271   0.34729   0.51784  -0.61632
O          O       0.25962   0.47546   0.58252  -0.63075
O          O       0.86612   0.15881   0.70682  -0.32640
O          O       0.97544   0.21075   0.65663  -0.33223
O          O       0.29743   0.31410   0.91457  -0.31177
O          O       0.24233   0.39245   0.84830  -0.31623
O          O       0.18453   0.13970   0.73247  -0.33109
O          O       0.19986   0.11547   0.61905  -0.30842
O          O       0.03224   0.40493   0.82094  -0.31315
O          O       0.05546   0.50364   0.76748  -0.31244
O          O       0.93971   0.04317   0.05453  -0.72982
O          O       0.02996   0.08570   0.15926  -0.57349
O          O       0.52840   0.42003   0.45843  -0.74001
O          O       0.40160   0.33313   0.40791  -0.56367
O          O       0.65681   0.19420   0.07117  -0.29008
O          O       0.55922   0.15541   0.13805  -0.32741
O          O       0.88908   0.14275   0.37760  -0.31626
O          O       0.73644   0.13134   0.37362  -0.31476
O          O       0.79125   0.30646   0.23342  -0.30632
O          O       0.82407   0.36477   0.34905  -0.28629
O          O       0.58748   0.03044   0.23871  -0.28706
O          O       0.44471   0.06326   0.24912  -0.31291
O          O       0.60724   0.50000   0.60950  -0.66171
O          O       0.45797   0.43995   0.59330  -0.64822
O          O       0.75872   0.04751   0.95509  -0.61804
O          O       0.77296   0.97618   0.84502  -0.61333
O          O       0.83790   0.35070   0.70853  -0.32516
O          O       0.81130   0.31336   0.80499  -0.31898
O          O       0.46743   0.19136   0.77675  -0.30998
O          O       0.37101   0.27744   0.75076  -0.33739
O          O       0.63793   0.17824   0.64030  -0.34621
O          O       0.65292   0.04920   0.64108  -0.30477
O          O       0.63347   0.37771   0.88507  -0.31276
O          O       0.63072   0.32113   0.97448  -0.29561
O          O       0.81489   0.51195   0.81151  -0.33885
O          O       0.96776   0.58823   0.49732  -0.33997
O          O       0.05456   0.91705   0.07744  -0.63172
O          O       0.91640   0.86525   0.00783  -0.67436
O          O       0.72730   0.65271   0.48216  -0.61613
O          O       0.74038   0.52454   0.41749  -0.63094
O          O       0.13388   0.84119   0.29318  -0.32627
O          O       0.02456   0.78925   0.34337  -0.33202
O          O       0.70257   0.68590   0.08544  -0.31189
O          O       0.75768   0.60755   0.15170  -0.31617
O          O       0.81547   0.86031   0.26754  -0.33128
O          O       0.80014   0.88453   0.38095  -0.30805
O          O       0.96776   0.59507   0.17906  -0.31335
O          O       0.94454   0.49636   0.23252  -0.31237
O          O       0.06029   0.95684   0.94547  -0.72965
O          O       0.97004   0.91430   0.84074  -0.57375
O          O       0.47160   0.57997   0.54157  -0.74008
O          O       0.59840   0.66687   0.59209  -0.56354
O          O       0.34319   0.80580   0.92883  -0.28995
O          O       0.44078   0.84459   0.86195  -0.32748
O          O       0.11092   0.85725   0.62240  -0.31645
O          O       0.26356   0.86866   0.62638  -0.31482
O          O       0.20876   0.69354   0.76658  -0.30598
O          O       0.17593   0.63524   0.65095  -0.28642
O          O       0.41253   0.96956   0.76130  -0.28700
O          O       0.55529   0.93674   0.75088  -0.31279
O          O       0.39276   0.50000   0.39050  -0.66179
O          O       0.54203   0.56005   0.40670  -0.64820
O          O       0.24128   0.95249   0.04491  -0.61853
O          O       0.22704   0.02382   0.15498  -0.61320
O          O       0.16210   0.64931   0.29147  -0.32496
O          O       0.18870   0.68664   0.19501  -0.31930
O          O       0.53257   0.80864   0.22326  -0.31003
O          O       0.62899   0.72256   0.24924  -0.33731
O          O       0.36207   0.82176   0.35970  -0.34599
O          O       0.34708   0.95081   0.35893  -0.30461
O          O       0.36653   0.62230   0.11493  -0.31266
O          O       0.36928   0.67887   0.02552  -0.29591
O          O       0.18511   0.48805   0.18850  -0.33866
O          O       0.03224   0.41177   0.50268  -0.34003

