data_crystal

_audit_creation_method 'AiiDA-DDEC plugin'

_cell_length_a        14.41100
_cell_length_b        14.42678
_cell_length_c        33.08310

_cell_angle_alpha     102.40746
_cell_angle_beta     102.40471
_cell_angle_gamma     90.05084

_symmetry_space_group_name_Hall 'P 1'
_symmetry_space_group_name_H-M  'P 1'

loop_
_symmetry_equiv_pos_as_xyz
 'x,y,z'

loop_
_atom_site_label
_atom_site_type_symbol
_atom_site_fract_x
_atom_site_fract_y
_atom_site_fract_z
_atom_site_charge
Dy         Dy      0.15950   0.95042   0.88122   1.96700
Dy         Dy      0.71617   0.93543   0.88016   2.06565
Dy         Dy      0.06427   0.83752   0.12014   1.96403
Dy         Dy      0.05213   0.27833   0.11825   2.02541
Dy         Dy      0.08900   0.81678   0.61907   1.99288
Dy         Dy      0.53242   0.80365   0.61893   1.94767
Dy         Dy      0.18291   0.46832   0.38102   1.86085
Dy         Dy      0.19413   0.91336   0.38100   1.87376
Dy         Dy      0.45435   0.95791   0.91349   1.99783
Dy         Dy      0.04650   0.54497   0.08667   2.09651
Dy         Dy      0.79258   0.79530   0.58573   2.02179
Dy         Dy      0.20802   0.20636   0.41513   2.04009
H          H       0.20121   0.16756   0.00332   0.14282
H          H       0.22825   0.47158   0.02338   0.12107
H          H       0.31399   0.45461   0.96471   0.11202
H          H       0.47795   0.38614   0.95050   0.09711
H          H       0.55468   0.37147   0.88942   0.10834
H          H       0.48214   0.26472   0.82023   0.11069
H          H       0.24765   0.19651   0.87169   0.12150
H          H       0.29238   0.25216   0.76159   0.11670
H          H       0.21397   0.13135   0.69708   0.12568
H          H       0.25332   0.91459   0.76912   0.13570
H          H       0.80114   0.83594   0.00308   0.14133
H          H       0.79575   0.55152   0.02338   0.11965
H          H       0.65208   0.51072   0.96519   0.11079
H          H       0.47248   0.56413   0.95112   0.09695
H          H       0.33549   0.51795   0.89036   0.10702
H          H       0.33920   0.55570   0.82080   0.11216
H          H       0.62392   0.67565   0.87154   0.12210
H          H       0.46952   0.51017   0.76207   0.11652
H          H       0.48317   0.56693   0.69716   0.12547
H          H       0.51570   0.85484   0.76880   0.13548
H          H       0.16439   0.79905   0.99688   0.14103
H          H       0.44823   0.77238   0.97610   0.11934
H          H       0.48965   0.68662   0.03462   0.10967
H          H       0.43567   0.52191   0.04918   0.09547
H          H       0.48189   0.44550   0.11018   0.10651
H          H       0.44458   0.51808   0.17965   0.11180
H          H       0.32476   0.75242   0.12840   0.12364
H          H       0.49070   0.70751   0.23841   0.11560
H          H       0.43377   0.78611   0.30311   0.12508
H          H       0.14580   0.74750   0.23144   0.13355
H          H       0.83324   0.19822   0.99676   0.14326
H          H       0.52921   0.20534   0.97698   0.11907
H          H       0.54659   0.34896   0.03526   0.11185
H          H       0.61356   0.52746   0.04922   0.09675
H          H       0.62807   0.66451   0.11002   0.10908
H          H       0.73510   0.66104   0.17933   0.11245
H          H       0.80410   0.37596   0.12840   0.12271
H          H       0.74845   0.53058   0.23816   0.11781
H          H       0.86909   0.51683   0.30281   0.12636
H          H       0.08589   0.48408   0.23080   0.13533
H          H       0.04882   0.91429   0.49691   0.14107
H          H       0.02212   0.19838   0.47638   0.11811
H          H       0.93628   0.23926   0.53496   0.11211
H          H       0.77176   0.18560   0.54911   0.09532
H          H       0.69502   0.23219   0.61013   0.10750
H          H       0.76800   0.19460   0.67964   0.11396
H          H       0.00209   0.07475   0.62842   0.12233
H          H       0.95696   0.24076   0.73779   0.11720
H          H       0.03580   0.18369   0.80266   0.12671
H          H       0.99667   0.89567   0.73097   0.13571
H          H       0.44850   0.58297   0.49675   0.14058
H          H       0.45510   0.27870   0.47683   0.11931
H          H       0.59860   0.29599   0.53517   0.11169
H          H       0.77753   0.36349   0.54928   0.09415
H          H       0.91461   0.37818   0.61009   0.10715
H          H       0.91099   0.48515   0.67936   0.11333
H          H       0.62584   0.55389   0.62837   0.12209
H          H       0.78066   0.49807   0.73835   0.11697
H          H       0.76694   0.61893   0.80303   0.12633
H          H       0.73399   0.83565   0.73091   0.13550
H          H       0.08560   0.55094   0.50305   0.13995
H          H       0.80129   0.54585   0.52354   0.12034
H          H       0.76017   0.40238   0.46530   0.11481
H          H       0.81401   0.22240   0.45112   0.09634
H          H       0.76796   0.08549   0.39033   0.10851
H          H       0.80575   0.08934   0.32078   0.11441
H          H       0.92551   0.37404   0.37161   0.11898
H          H       0.76052   0.21939   0.26221   0.11592
H          H       0.81692   0.23322   0.19726   0.12712
H          H       0.10502   0.26597   0.26883   0.13568
H          H       0.41769   0.95139   0.50333   0.14013
H          H       0.72190   0.97822   0.52341   0.11567
H          H       0.70458   0.06381   0.46470   0.11236
H          H       0.63614   0.22798   0.45050   0.09469
H          H       0.62149   0.30473   0.38941   0.10613
H          H       0.51468   0.23216   0.32020   0.11442
H          H       0.44631  -0.00225   0.37177   0.12403
H          H       0.50185   0.04217   0.26161   0.11590
H          H       0.38119   0.96399   0.19710   0.12640
H          H       0.16437   0.00349   0.26917   0.13557
H          H       0.92497   0.92607   0.85286   0.00823
H          H       0.07379   0.07291   0.14696   0.00722
H          H       0.32390   0.82403   0.64755   0.01340
H          H       0.17678   0.67692   0.35304   0.00233
C          C       0.30099   0.12242   0.94481   0.65855
C          C       0.28051   0.22161   0.96430  -0.08395
C          C       0.22769   0.23105   0.99583  -0.08848
C          C       0.20923   0.32104   0.01758  -0.04663
C          C       0.24232   0.40154   0.00647  -0.07772
C          C       0.29153   0.39171   0.97397  -0.14628
C          C       0.31112   0.30190   0.95192   0.06303
C          C       0.15869   0.33181   0.05318   0.64453
C          C       0.35778   0.29237   0.91559   0.07223
C          C       0.44404   0.34213   0.91983  -0.13672
C          C       0.48752   0.33283   0.88549  -0.07196
C          C       0.44637   0.27365   0.84649  -0.13207
C          C       0.36053   0.22239   0.84166   0.06649
C          C       0.31628   0.23343   0.87613  -0.18128
C          C       0.31810   0.15223   0.80202   0.07471
C          C       0.28510   0.17801   0.76310  -0.14311
C          C       0.24074   0.11070   0.72701  -0.07463
C          C       0.22871   0.01520   0.72874  -0.03341
C          C       0.26138   0.98848   0.76736  -0.09997
C          C       0.30523   0.05595   0.80344  -0.07826
C          C       0.18130   0.94311   0.69022   0.56556
C          C       0.34665   0.02116   0.84225   0.63313
C          C       0.64354   0.82353   0.94458   0.66178
C          C       0.68329   0.74352   0.96432  -0.07963
C          C       0.76722   0.76521   0.99582  -0.09195
C          C       0.80813   0.69713   0.01766  -0.04255
C          C       0.76479   0.60528   0.00670  -0.07841
C          C       0.68309   0.58302   0.97434  -0.15054
C          C       0.64082   0.65077   0.95226   0.06216
C          C       0.89500   0.72238   0.05273   0.64914
C          C       0.55807   0.62345   0.91598   0.07322
C          C       0.47619   0.57772   0.92042  -0.13663
C          C       0.39863   0.55255   0.88617  -0.07194
C          C       0.40089   0.57282   0.84705  -0.13288
C          C       0.48160   0.61950   0.84199   0.06832
C          C       0.56012   0.64293   0.87635  -0.18487
C          C       0.48394   0.65030   0.80218   0.07744
C          C       0.47831   0.58568   0.76338  -0.14243
C          C       0.48640   0.61696   0.72716  -0.07506
C          C       0.50041   0.71404   0.72878  -0.03943
C          C       0.50568   0.77933   0.76715  -0.09755
C          C       0.49747   0.74790   0.80330  -0.08091
C          C       0.50893   0.74700   0.68996   0.57135
C          C       0.49369   0.82151   0.84182   0.63016
C          C       0.17779   0.70040   0.05584   0.65726
C          C       0.25748   0.72086   0.03616  -0.07721
C          C       0.23530   0.77268   0.00434  -0.09180
C          C       0.30310   0.79077   0.98208  -0.04585
C          C       0.39484   0.75805   0.99302  -0.08169
C          C       0.41745   0.70886   0.02553  -0.14703
C          C       0.35006   0.68969   0.04808   0.05814
C          C       0.27764   0.84306   0.94711   0.64552
C          C       0.37680   0.64243   0.08425   0.07546
C          C       0.42218   0.55610   0.07989  -0.13751
C          C       0.44716   0.51260   0.11422  -0.07445
C          C       0.42727   0.55385   0.15339  -0.13311
C          C       0.38104   0.63971   0.15832   0.07083
C          C       0.35743   0.68390   0.12385  -0.18611
C          C       0.35072   0.68235   0.19813   0.07510
C          C       0.41517   0.71524   0.23696  -0.14504
C          C       0.38378   0.75946   0.27311  -0.07511
C          C       0.28663   0.77186   0.27140  -0.02908
C          C       0.22139   0.73919   0.23295  -0.09661
C          C       0.25305   0.69512   0.19685  -0.08543
C          C       0.25313   0.81858   0.31019   0.56158
C          C       0.18014   0.65230   0.15827   0.64002
C          C       0.87907   0.35667   0.05524   0.66177
C          C       0.77974   0.31648   0.03575  -0.07554
C          C       0.76999   0.23241   0.00428  -0.08926
C          C       0.67992   0.19188   0.98252  -0.04611
C          C       0.59951   0.23604   0.99365  -0.07874
C          C       0.60955   0.31740   0.02606  -0.14627
C          C       0.69929   0.35943   0.04797   0.06292
C          C       0.66887   0.10548   0.94705   0.65752
C          C       0.70796   0.44205   0.08423   0.07162
C          C       0.65778   0.52379   0.07988  -0.13548
C          C       0.66676   0.60135   0.11412  -0.06986
C          C       0.72621   0.59917   0.15316  -0.13239
C          C       0.77798   0.51854   0.15810   0.06864
C          C       0.76696   0.43997   0.12377  -0.18409
C          C       0.84856   0.51595   0.19774   0.07922
C          C       0.82254   0.52163   0.23662  -0.14245
C          C       0.88952   0.51363   0.27282  -0.07184
C          C       0.98487   0.49970   0.27104  -0.04109
C          C       0.01206   0.49407   0.23258  -0.09456
C          C       0.94490   0.50160   0.19635  -0.08235
C          C       0.05613   0.49125   0.30977   0.57482
C          C       0.98054   0.50515   0.15775   0.63990
C          C       0.94919   0.92706   0.55551   0.67656
C          C       0.96938   0.00677   0.53586  -0.08914
C          C       0.02226   0.98502   0.50442  -0.08797
C          C       0.04099   0.05324   0.48249  -0.04875
C          C       0.00798   0.14487   0.49327  -0.07992
C          C       0.95865   0.16718   0.52574  -0.14626
C          C       0.93901   0.09942   0.54797   0.06509
C          C       0.09182   0.02763   0.44706   0.64845
C          C       0.89202   0.12656   0.58416   0.06843
C          C       0.80574   0.17216   0.57983  -0.13976
C          C       0.76221   0.19750   0.61414  -0.06754
C          C       0.80346   0.17753   0.65327  -0.13525
C          C       0.88917   0.13101   0.65812   0.07576
C          C       0.93353   0.10738   0.62374  -0.18439
C          C       0.93157   0.10045   0.69782   0.07224
C          C       0.96441   0.16527   0.73652  -0.14531
C          C       0.00884   0.13392   0.77262  -0.07410
C          C       0.02112   0.03677   0.77093  -0.03633
C          C       0.98840   0.97127   0.73258  -0.09802
C          C       0.94411   0.00282   0.69650  -0.07949
C          C       0.06816   0.00413   0.80968   0.56422
C          C       0.90163   0.93010   0.65767   0.62237
C          C       0.60639   0.62875   0.55489   0.66864
C          C       0.56634   0.52924   0.53561  -0.08535
C          C       0.48229   0.51942   0.50408  -0.09047
C          C       0.44184   0.42949   0.48224  -0.04670
C          C       0.48570   0.34903   0.49351  -0.08030
C          C       0.56731   0.35904   0.52592  -0.14540
C          C       0.60924   0.44884   0.54787   0.06343
C          C       0.35476   0.41948   0.44723   0.64385
C          C       0.69192   0.45776   0.58421   0.07075
C          C       0.77380   0.40768   0.57991  -0.14102
C          C       0.85142   0.41685   0.61416  -0.07215
C          C       0.84913   0.47614   0.65318  -0.13145
C          C       0.76828   0.52756   0.65815   0.07554
C          C       0.68979   0.51663   0.62375  -0.18598
C          C       0.76547   0.59787   0.69787   0.07179
C          C       0.77173   0.57216   0.73686  -0.14383
C          C       0.76365   0.63945   0.77302  -0.07628
C          C       0.74942   0.73480   0.77122  -0.03087
C          C       0.74375   0.76172   0.73265  -0.09926
C          C       0.75150   0.69428   0.69647  -0.08513
C          C       0.74057   0.80646   0.80989   0.56738
C          C       0.75553   0.72905   0.65759   0.62250
C          C       0.07370   0.39430   0.44506   0.65947
C          C       0.99309   0.43370   0.46442  -0.09027
C          C       0.01464   0.51754   0.49597  -0.08777
C          C       0.94643   0.55845   0.51781  -0.05154
C          C       0.85478   0.51475   0.50675  -0.07479
C          C       0.83258   0.43312   0.47443  -0.14700
C          C       0.90033   0.39093   0.45229   0.07059
C          C       0.97148   0.64521   0.55299   0.65681
C          C       0.87322   0.30813   0.41603   0.06841
C          C       0.82760   0.22619   0.42042  -0.13778
C          C       0.80255   0.14864   0.38617  -0.06842
C          C       0.82287   0.15097   0.34706  -0.12890
C          C       0.86952   0.23177   0.34209   0.07563
C          C       0.89277   0.31027   0.37641  -0.18534
C          C       0.90057   0.23436   0.30235   0.06885
C          C       0.83604   0.22853   0.26350  -0.14440
C          C       0.86716   0.23647   0.22721  -0.07191
C          C       0.96424   0.25069   0.22882  -0.03188
C          C       0.02949   0.25600   0.26727  -0.10047
C          C      -0.00165   0.24809   0.30360  -0.08382
C          C       0.99730   0.25782   0.18988   0.56567
C          C       0.07137   0.24485   0.34262   0.63238
C          C       0.37014   0.04954   0.44457   0.65208
C          C       0.47031   0.03051   0.46424  -0.07335
C          C       0.48096   0.97840   0.49597  -0.08942
C          C       0.57109   0.95943   0.51767  -0.05550
C          C       0.65168   0.99219   0.50650  -0.08370
C          C       0.64144   0.04152   0.47401  -0.14822
C          C       0.55123   0.06134   0.45205   0.06665
C          C       0.58062   0.90835   0.55300   0.66294
C          C       0.54233   0.10781   0.41562   0.07114
C          C       0.59213   0.19404   0.41981  -0.14138
C          C       0.58287   0.23757   0.38548  -0.07373
C          C       0.52361   0.19640   0.34647  -0.13388
C          C       0.47219   0.11069   0.34169   0.07701
C          C       0.48336   0.06631   0.37613  -0.18297
C          C       0.40178   0.06853   0.30204   0.06970
C          C       0.42770   0.03516   0.26318  -0.14662
C          C       0.36066   0.99075   0.22706  -0.07599
C          C       0.26521   0.97870   0.22885  -0.02951
C          C       0.23815   0.01191   0.26730  -0.09947
C          C       0.30531   0.05614   0.30343  -0.07783
C          C       0.19386   0.93140   0.19017   0.56786
C          C       0.27013   0.09776   0.34217   0.63368
C          C       0.94128   0.94534   0.88804   0.52667
C          C       0.05510   0.05419   0.11179   0.52257
C          C       0.30719   0.80587   0.61253   0.52398
C          C       0.19329   0.69437   0.38818   0.51254
O          O       0.22705   0.06591   0.93214  -0.65768
O          O       0.38480   0.09725   0.94346  -0.65004
O          O       0.15228   0.26154   0.07056  -0.63402
O          O       0.12272   0.41166   0.06544  -0.71267
O          O       0.14848   0.96967   0.65537  -0.66339
O          O       0.17272   0.85494   0.69171  -0.64811
O          O       0.29454   0.97078   0.85774  -0.72628
O          O       0.43434   0.03779   0.85887  -0.57979
O          O       0.02742   0.96527   0.90723  -0.57637
O          O       0.70452   0.86732   0.93148  -0.67803
O          O       0.55830   0.84684   0.94324  -0.63336
O          O       0.91688   0.80965   0.07067  -0.63404
O          O       0.94525   0.65496   0.06423  -0.73929
O          O       0.50607   0.68505   0.65553  -0.63134
O          O       0.51942   0.83651   0.69091  -0.63800
O          O       0.55990   0.88869   0.85660  -0.72449
O          O       0.42342   0.82069   0.85896  -0.56100
O          O       0.87338   0.94484   0.90667  -0.58796
O          O       0.13261   0.77294   0.06864  -0.65988
O          O       0.15587   0.61550   0.05685  -0.65651
O          O       0.19024   0.84997   0.93024  -0.63861
O          O       0.34557   0.88110   0.93551  -0.72221
O          O       0.31443   0.84960   0.34486  -0.62591
O          O       0.16335   0.82826   0.30869  -0.66540
O          O       0.11360   0.70372   0.14298  -0.75971
O          O       0.18092   0.56492   0.14139  -0.58936
O          O       0.05459   0.96740   0.09354  -0.57668
O          O       0.93551   0.29540   0.06825  -0.69782
O          O       0.90398   0.44146   0.05640  -0.63436
O          O       0.73876   0.08285   0.92934  -0.67432
O          O       0.58915   0.05641   0.93521  -0.71861
O          O       0.02873   0.49479   0.34445  -0.60551
O          O       0.14461   0.48098   0.30861  -0.61550
O          O       0.03258   0.43870   0.14308  -0.75055
O          O       0.96264   0.57538   0.14066  -0.59320
O          O       0.03424   0.12042   0.09238  -0.58061
O          O       0.02261   0.88223   0.56785  -0.66682
O          O       0.86496   0.90430   0.55691  -0.64706
O          O       0.09690   0.94029   0.42961  -0.62331
O          O       0.13023   0.09413   0.43487  -0.72876
O          O       0.09850   0.06666   0.84419  -0.64772
O          O       0.07839   0.91488   0.80886  -0.64446
O          O       0.95259   0.86275   0.64243  -0.70747
O          O       0.81445   0.93210   0.64078  -0.58313
O          O       0.22090   0.80471   0.59359  -0.58767
O          O       0.54565   0.68574   0.56773  -0.66493
O          O       0.69145   0.65354   0.55589  -0.63676
O          O       0.33253   0.48934   0.42962  -0.61701
O          O       0.30543   0.33995   0.43520  -0.70351
O          O       0.74193   0.77924   0.84436  -0.62553
O          O       0.73028   0.89483   0.80840  -0.67314
O          O       0.68973   0.78174   0.64252  -0.73040
O          O       0.82504   0.70980   0.64017  -0.56115
O          O       0.37537   0.78896   0.59399  -0.54129
O          O       0.11898   0.45581   0.43299  -0.59779
O          O       0.09639   0.30870   0.44317  -0.63346
O          O       0.05904   0.66733   0.57047  -0.61798
O          O       0.90441   0.69549   0.56485  -0.68825
O          O       0.93494   0.25541   0.15548  -0.63182
O          O       0.08715   0.26748   0.19096  -0.66119
O          O       0.13858   0.31106   0.35762  -0.72380
O          O       0.06988   0.17481   0.35972  -0.57968
O          O       0.19424   0.62650   0.40705  -0.56326
O          O       0.31277   0.97646   0.43232  -0.64274
O          O       0.34677   0.13389   0.44319  -0.66463
O          O       0.51004   0.90297   0.57016  -0.61781
O          O       0.65974   0.87060   0.56529  -0.75125
O          O       0.22089   0.90014   0.15554  -0.63310
O          O       0.10545   0.92141   0.19168  -0.66216
O          O       0.21775   0.04586   0.35697  -0.73942
O          O       0.28802   0.18468   0.35956  -0.57522
O          O       0.21237   0.78074   0.40687  -0.57658

