data_crystal

_audit_creation_method 'AiiDA-DDEC plugin'

_cell_length_a        10.66491
_cell_length_b        14.18875
_cell_length_c        27.64693

_cell_angle_alpha     89.95609
_cell_angle_beta     89.91986
_cell_angle_gamma     89.89006

_symmetry_space_group_name_Hall 'P 1'
_symmetry_space_group_name_H-M  'P 1'

loop_
_symmetry_equiv_pos_as_xyz
 'x,y,z'

loop_
_atom_site_label
_atom_site_type_symbol
_atom_site_fract_x
_atom_site_fract_y
_atom_site_fract_z
_atom_site_charge
Ni         Ni      0.84813   0.30231  -0.00002   1.08569
Ni         Ni      0.14378   0.80234   0.50045   1.08743
Ni         Ni      0.84972   0.20313   0.50013   1.08256
Ni         Ni      0.14431   0.69999   0.00127   1.08424
Ni         Ni      0.99580   0.50136  -0.00022   1.16031
Ni         Ni     -0.00165   0.00321   0.50073   1.15001
H          H       0.33182   0.39947   0.18881   0.10666
H          H       0.22310   0.43427   0.11145   0.14058
H          H       0.08036   0.16559   0.21333   0.11410
H          H       0.97736   0.19836   0.13422   0.12426
H          H       0.41101   0.34294   0.33729   0.11407
H          H       0.60071   0.12238   0.25880   0.11278
H          H       0.72245   0.08133   0.33327   0.11995
H          H       0.54263   0.30783   0.41001   0.12926
H          H       0.65960   0.89742   0.31289   0.10567
H          H       0.76849   0.93531   0.38935   0.14032
H          H       0.91571   0.66631   0.28877   0.11498
H          H       0.02065   0.70253   0.36704   0.12444
H          H       0.57755   0.84481   0.16301   0.11810
H          H       0.39339   0.62191   0.24429   0.11267
H          H       0.26350   0.58487   0.17158   0.12102
H          H       0.43587   0.80958   0.09263   0.12834
H          H       0.33308   0.10162   0.31163   0.10654
H          H       0.22513   0.06743   0.38894   0.14197
H          H       0.08054   0.33486   0.28667   0.11449
H          H       0.97694   0.30278   0.36571   0.12474
H          H       0.41404   0.15635   0.16097   0.11659
H          H       0.59852   0.37537   0.24179   0.11140
H          H       0.72151   0.41984   0.16814   0.12232
H          H       0.54759   0.19389   0.08904   0.13024
H          H       0.66318   0.60382   0.19085   0.10481
H          H       0.76908   0.56568   0.11368   0.14066
H          H       0.91660   0.83665   0.21279   0.11389
H          H       0.01969   0.80007   0.13403   0.12492
H          H       0.58222   0.65544   0.33920   0.11811
H          H       0.39830   0.87472   0.25797   0.11168
H          H       0.27149   0.91763   0.33135   0.12041
H          H       0.44581   0.69260   0.41087   0.12856
H          H       0.65902   0.60415   0.81095   0.10565
H          H       0.76859   0.56696   0.88781   0.14037
H          H       0.91326   0.83706   0.78731   0.11424
H          H       0.01736   0.80127   0.86561   0.12449
H          H       0.57845   0.65441   0.66195   0.11471
H          H       0.39142   0.87479   0.74174   0.11156
H          H       0.27111   0.91882   0.66748   0.12090
H          H       0.44649   0.69208   0.58951   0.12945
H          H       0.33480   0.10371   0.68849   0.10627
H          H       0.22591   0.06825   0.61163   0.14035
H          H       0.08151   0.33685   0.71306   0.11419
H          H       0.97618   0.30218   0.63452   0.12384
H          H       0.41217   0.15696   0.83935   0.11694
H          H       0.59725   0.37584   0.75799   0.11089
H          H       0.72236   0.41910   0.83149   0.12186
H          H       0.54704   0.19430   0.91102   0.12979
H          H       0.65745   0.89908   0.68934   0.10600
H          H       0.76570   0.93596   0.61206   0.13940
H          H       0.91109   0.66695   0.71348   0.11424
H          H       0.01609   0.70115   0.63478   0.12512
H          H       0.57809   0.84403   0.83744   0.11387
H          H       0.39421   0.62340   0.75795   0.11200
H          H       0.26809   0.58235   0.83186   0.12154
H          H       0.44546   0.80886   0.90958   0.12955
H          H       0.33441   0.39845   0.81143   0.10676
H          H       0.22637   0.43471   0.88876   0.14200
H          H       0.07970   0.16665   0.78743   0.11464
H          H       0.97644   0.20100   0.86647   0.12439
H          H       0.41144   0.34372   0.66295   0.11528
H          H       0.59900   0.12271   0.74137   0.11199
H          H       0.72096   0.08116   0.66676   0.12058
H          H       0.54332   0.30856   0.59009   0.12950
C          C       0.04013   0.33949   0.06865   0.58343
C          C       0.21768   0.27742   0.20596   0.06920
C          C       0.49452   0.23306   0.29357   0.07224
C          C       0.09906   0.31512   0.11662  -0.00465
C          C       0.25517   0.35451   0.17691  -0.12646
C          C       0.19645   0.37352   0.13319  -0.08496
C          C       0.11366   0.22336   0.19070  -0.13810
C          C       0.05620   0.24109   0.14623  -0.09625
C          C       0.48002   0.28615   0.33633  -0.13007
C          C       0.58696   0.16166   0.29221  -0.13548
C          C       0.65435   0.13868   0.33347  -0.09850
C          C       0.63753   0.19035   0.37631  -0.01055
C          C       0.71349   0.16065   0.41946   0.53520
C          C       0.55176   0.26589   0.37722  -0.09162
C          C       0.95602   0.84312   0.43132   0.58530
C          C       0.77669   0.77653   0.29572   0.07165
C          C       0.50034   0.73250   0.20759   0.07348
C          C       0.89696   0.81873   0.38378  -0.00893
C          C       0.73778   0.85367   0.32439  -0.12683
C          C       0.79694   0.87503   0.36756  -0.08854
C          C       0.88222   0.72419   0.31110  -0.13787
C          C       0.94045   0.74393   0.35502  -0.09467
C          C       0.50974   0.78689   0.16482  -0.13394
C          C       0.40672   0.66164   0.21074  -0.13761
C          C       0.33377   0.64046   0.17078  -0.09639
C          C       0.34581   0.69236   0.12785  -0.01267
C          C       0.25747   0.66728   0.08803   0.53808
C          C       0.43170   0.76729   0.12547  -0.08855
C          C       0.03896   0.16102   0.43053   0.58099
C          C       0.21850   0.22391   0.29419   0.07062
C          C       0.49460   0.26567   0.20576   0.07300
C          C       0.09810   0.18508   0.38279  -0.01055
C          C       0.25641   0.14692   0.32323  -0.12525
C          C       0.19729   0.12745   0.36678  -0.08845
C          C       0.11402   0.27763   0.30946  -0.13866
C          C       0.05559   0.25969   0.35364  -0.09502
C          C       0.48142   0.21376   0.16260  -0.13272
C          C       0.58586   0.33744   0.20803  -0.13630
C          C       0.65414   0.36215   0.16740  -0.09698
C          C       0.63883   0.31118   0.12432  -0.01261
C          C       0.71824   0.34163   0.08238   0.53321
C          C       0.55446   0.23513   0.12221  -0.08915
C          C       0.95119   0.66080   0.06908   0.58931
C          C       0.77769   0.72590   0.20657   0.06850
C          C       0.50127   0.76450   0.29466   0.07424
C          C       0.89540   0.68445   0.11754  -0.00134
C          C       0.74012   0.64784   0.17838  -0.12917
C          C       0.79780   0.62683   0.13475  -0.08553
C          C       0.88289   0.77833   0.19084  -0.13849
C          C       0.93999   0.75863   0.14652  -0.09194
C          C       0.51324   0.71228   0.33772  -0.13582
C          C       0.40947   0.83622   0.29179  -0.13316
C          C       0.34004   0.86058   0.33227  -0.09903
C          C       0.35423   0.81003   0.37560  -0.01213
C          C       0.27350   0.84096   0.41720   0.53520
C          C       0.43916   0.73408   0.37787  -0.08826
C          C       0.95448   0.66033   0.93056   0.58364
C          C       0.77410   0.72583   0.79426   0.06968
C          C       0.49834   0.76548   0.70579   0.07153
C          C       0.89584   0.68451   0.88254  -0.00403
C          C       0.73653   0.64827   0.82296  -0.12750
C          C       0.79662   0.62749   0.86615  -0.08600
C          C       0.87924   0.77887   0.80947  -0.13769
C          C       0.93816   0.75917   0.85339  -0.09578
C          C       0.51167   0.71265   0.66291  -0.13174
C          C       0.40623   0.83706   0.70794  -0.13345
C          C       0.33896   0.86136   0.66704  -0.09982
C          C       0.35552   0.81066   0.62398  -0.01292
C          C       0.27952   0.84288   0.58167   0.53800
C          C       0.43924   0.73402   0.62233  -0.08950
C          C       0.04057   0.16290   0.56924   0.58238
C          C       0.21890   0.22558   0.70582   0.07042
C          C       0.49437   0.26571   0.79417   0.07231
C          C       0.09897   0.18609   0.61715  -0.01113
C          C       0.25687   0.14819   0.67704  -0.12828
C          C       0.19785   0.12845   0.63353  -0.08615
C          C       0.11396   0.27877   0.69056  -0.13908
C          C       0.05573   0.26006   0.64647  -0.09470
C          C       0.48088   0.21366   0.83736  -0.13290
C          C       0.58579   0.33738   0.79171  -0.13484
C          C       0.65462   0.36166   0.83220  -0.09858
C          C       0.63906   0.31080   0.87534  -0.01256
C          C       0.71717   0.34179   0.91749   0.53531
C          C       0.55431   0.23494   0.87761  -0.09020
C          C       0.95730   0.84430   0.57090   0.58042
C          C       0.77349   0.77831   0.70611   0.07009
C          C       0.49697   0.73401   0.79355   0.07359
C          C       0.89484   0.81875   0.61793  -0.00819
C          C       0.73493   0.85512   0.67718  -0.12753
C          C       0.79445   0.87558   0.63381  -0.08592
C          C       0.87795   0.72466   0.69088  -0.13554
C          C       0.93677   0.74354   0.64686  -0.09753
C          C       0.51011   0.78684   0.83638  -0.13123
C          C       0.40571   0.66214   0.79166  -0.13715
C          C       0.33741   0.63880   0.83260  -0.09542
C          C       0.35256   0.69058   0.87563  -0.01259
C          C       0.27105   0.66229   0.91751   0.53839
C          C       0.43793   0.76599   0.87707  -0.08876
C          C       0.03963   0.34250   0.93084   0.58378
C          C       0.21778   0.27780   0.79448   0.06987
C          C       0.49424   0.23374   0.70654   0.07425
C          C       0.09868   0.31749   0.88318  -0.00918
C          C       0.25659   0.35458   0.82335  -0.12792
C          C       0.19816   0.37446   0.86699  -0.08708
C          C       0.11315   0.22443   0.80984  -0.13773
C          C       0.05567   0.24301   0.85416  -0.09478
C          C       0.47994   0.28682   0.66385  -0.13252
C          C       0.58579   0.16183   0.70795  -0.13449
C          C       0.65341   0.13886   0.66681  -0.09816
C          C       0.63776   0.19132   0.62420  -0.01333
C          C       0.71808   0.16252   0.58201   0.53489
C          C       0.55214   0.26693   0.62301  -0.08851
C          C       0.28836   0.25055   0.24996  -0.01341
C          C       0.41811   0.24930   0.24965  -0.01354
C          C       0.70809   0.75068   0.25112  -0.00994
C          C       0.57841   0.74844   0.25105  -0.01491
C          C       0.70359   0.75183   0.75024  -0.01203
C          C       0.57392   0.75009   0.74988  -0.01354
C          C       0.28805   0.25148   0.75024  -0.01387
C          C       0.41772   0.25015   0.75041  -0.01556
O          O       0.96706   0.27687   0.05010  -0.51226
O          O       0.06810   0.41942   0.05192  -0.47994
O          O       0.72539   0.22509   0.45290  -0.48326
O          O       0.76052   0.08023   0.42029  -0.40959
O          O       0.02510   0.77904   0.45101  -0.51201
O          O       0.92915   0.92326   0.44794  -0.47649
O          O       0.26905   0.71889   0.04892  -0.48251
O          O       0.18132   0.60186   0.09485  -0.45582
O          O       0.96697   0.22384   0.44965  -0.51140
O          O       0.06689   0.08107   0.44733  -0.46939
O          O       0.72379   0.28074   0.04683  -0.48014
O          O       0.77423   0.41864   0.08415  -0.42004
O          O       0.02304   0.72408   0.05007  -0.51430
O          O       0.91644   0.58380   0.05075  -0.46989
O          O       0.26629   0.78064   0.45292  -0.48288
O          O       0.21934   0.91903   0.41491  -0.42302
O          O       0.02681   0.72316   0.94945  -0.51091
O          O       0.92334   0.58101   0.94744  -0.46861
O          O       0.26766   0.78041   0.54720  -0.48617
O          O       0.23245   0.92321   0.58260  -0.41795
O          O       0.96716   0.22527   0.55052  -0.51121
O          O       0.07337   0.08463   0.55172  -0.47235
O          O       0.72290   0.28079   0.95297  -0.48398
O          O       0.77227   0.41933   0.91596  -0.42321
O          O       0.02615   0.78021   0.55096  -0.50911
O          O       0.93347   0.92610   0.55548  -0.47280
O          O       0.27060   0.71934   0.95487  -0.48404
O          O       0.20856   0.58849   0.91370  -0.43453
O          O       0.96617   0.28085   0.94989  -0.51238
O          O       0.06880   0.42217   0.94752  -0.47267
O          O       0.72533   0.22448   0.54707  -0.48102
O          O       0.77493   0.08536   0.58301  -0.41665
O          O       0.85027   0.43265   0.00002  -0.45990
O          O       0.14340   0.93346   0.49998  -0.45495
O          O       0.85289   0.07141   0.50078  -0.45569
O          O       0.13970   0.56893   0.00132  -0.47187

