data_crystal

_audit_creation_method 'AiiDA-DDEC plugin'

_cell_length_a        18.60739
_cell_length_b        18.60746
_cell_length_c        24.16979

_cell_angle_alpha     90.00000
_cell_angle_beta     90.00000
_cell_angle_gamma     120.03740

_symmetry_space_group_name_Hall 'P 1'
_symmetry_space_group_name_H-M  'P 1'

loop_
_symmetry_equiv_pos_as_xyz
 'x,y,z'

loop_
_atom_site_label
_atom_site_type_symbol
_atom_site_fract_x
_atom_site_fract_y
_atom_site_fract_z
_atom_site_charge
Cu         Cu      0.47776   0.52223   0.95912   0.91959
Cu         Cu      0.04451   0.52227   0.95913   0.91973
Cu         Cu      0.47773   0.95549   0.95913   0.91960
Cu         Cu      0.52224   0.47776   0.45912   0.91957
Cu         Cu      0.95549   0.47773   0.45913   0.91970
Cu         Cu      0.52227   0.04451   0.45913   0.91966
Cu         Cu      0.95549   0.47773   0.04087   0.91968
Cu         Cu      0.52224   0.47776   0.04088   0.91954
Cu         Cu      0.52227   0.04451   0.04087   0.91960
Cu         Cu      0.04451   0.52227   0.54087   0.91973
Cu         Cu      0.47776   0.52223   0.54088   0.91955
Cu         Cu      0.47773   0.95549   0.54087   0.91963
H          H       0.70322   0.63828   0.85969   0.13439
H          H       0.93516   0.29686   0.85967   0.13489
H          H       0.36169   0.06489   0.85966   0.13455
H          H       0.29678   0.36172   0.35969   0.13457
H          H       0.06485   0.70314   0.35968   0.13474
H          H       0.63831   0.93511   0.35966   0.13485
H          H       0.06489   0.36169   0.14034   0.13488
H          H       0.63828   0.70322   0.14031   0.13461
H          H       0.29686   0.93515   0.14032   0.13494
H          H       0.93511   0.63831   0.64034   0.13465
H          H       0.36172   0.29678   0.64031   0.13446
H          H       0.70314   0.06485   0.64032   0.13470
H          H       0.29678   0.36172   0.14031   0.13456
H          H       0.06485   0.70314   0.14032   0.13474
H          H       0.63831   0.93511   0.14034   0.13446
H          H       0.70322   0.63828   0.64031   0.13437
H          H       0.93515   0.29686   0.64032   0.13522
H          H       0.36169   0.06489   0.64034   0.13492
H          H       0.93511   0.63831   0.85966   0.13464
H          H       0.36172   0.29678   0.85969   0.13448
H          H       0.70314   0.06485   0.85968   0.13470
H          H       0.06489   0.36169   0.35966   0.13488
H          H       0.63828   0.70322   0.35969   0.13460
H          H       0.29686   0.93515   0.35968   0.13494
H          H       0.76197   0.52397   0.99358   0.14188
H          H       0.76514   0.53027   0.78603   0.30696
H          H       0.90607   0.81213   0.83911   0.11121
H          H       0.76199   0.23801   0.99356   0.14219
H          H       0.76518   0.23483   0.78603   0.30640
H          H       0.90604   0.09396   0.83911   0.11135
H          H       0.47603   0.23803   0.99358   0.14189
H          H       0.46973   0.23486   0.78603   0.30695
H          H       0.18787   0.09393   0.83911   0.11126
H          H       0.23803   0.47603   0.49358   0.14187
H          H       0.23486   0.46973   0.28603   0.30689
H          H       0.09393   0.18787   0.33911   0.11128
H          H       0.23801   0.76199   0.49356   0.14221
H          H       0.23483   0.76517   0.28603   0.30648
H          H       0.09396   0.90604   0.33911   0.11134
H          H       0.52397   0.76197   0.49358   0.14186
H          H       0.53027   0.76513   0.28603   0.30696
H          H       0.81214   0.90607   0.33911   0.11128
H          H       0.23803   0.47603   0.00642   0.14187
H          H       0.23486   0.46973   0.21397   0.30688
H          H       0.09393   0.18787   0.16089   0.11127
H          H       0.52397   0.76197   0.00642   0.14186
H          H       0.53027   0.76513   0.21397   0.30695
H          H       0.81214   0.90607   0.16089   0.11128
H          H       0.23801   0.76199   0.00644   0.14222
H          H       0.23483   0.76517   0.21397   0.30648
H          H       0.09396   0.90604   0.16089   0.11134
H          H       0.76197   0.52397   0.50642   0.14189
H          H       0.76514   0.53027   0.71397   0.30696
H          H       0.90607   0.81213   0.66089   0.11125
H          H       0.47603   0.23803   0.50642   0.14189
H          H       0.46973   0.23486   0.71397   0.30697
H          H       0.18787   0.09393   0.66089   0.11127
H          H       0.76199   0.23801   0.50644   0.14224
H          H       0.76518   0.23483   0.71397   0.30642
H          H       0.90604   0.09396   0.66089   0.11136
H          H       0.94529   0.89057   0.75000   0.10109
H          H       0.94523   0.05477   0.75000   0.10253
H          H       0.10943   0.05471   0.75000   0.10116
H          H       0.05471   0.10943   0.25000   0.10115
H          H       0.05477   0.94523   0.25000   0.10099
H          H       0.89058   0.94528   0.25000   0.10125
C          C       0.72425   0.57857   0.92924  -0.03411
C          C       0.64183   0.55162   0.95527   0.58594
C          C       0.74624   0.62240   0.87904  -0.12949
C          C       0.85437   0.27577   0.92922  -0.03395
C          C       0.90982   0.35820   0.95526   0.58625
C          C       0.87622   0.25379   0.87904  -0.13015
C          C       0.42142   0.14565   0.92923  -0.03397
C          C       0.44838   0.09020   0.95526   0.58598
C          C       0.37759   0.12381   0.87903  -0.12955
C          C       0.27575   0.42143   0.42924  -0.03422
C          C       0.35817   0.44838   0.45527   0.58602
C          C       0.25376   0.37760   0.37904  -0.12938
C          C       0.14563   0.72423   0.42922  -0.03396
C          C       0.09018   0.64180   0.45525   0.58620
C          C       0.12379   0.74620   0.37904  -0.12986
C          C       0.57858   0.85434   0.42923  -0.03407
C          C       0.55162   0.90980   0.45526   0.58606
C          C       0.62241   0.87619   0.37903  -0.13016
C          C       0.14566   0.42142   0.07077  -0.03393
C          C       0.09020   0.44838   0.04474   0.58599
C          C       0.12381   0.37759   0.12097  -0.13021
C          C       0.57857   0.72425   0.07076  -0.03425
C          C       0.55162   0.64183   0.04473   0.58601
C          C       0.62240   0.74624   0.12096  -0.12942
C          C       0.27577   0.85436   0.07078  -0.03394
C          C       0.35820   0.90982   0.04475   0.58612
C          C       0.25379   0.87621   0.12096  -0.13043
C          C       0.85435   0.57858   0.57077  -0.03404
C          C       0.90980   0.55162   0.54474   0.58600
C          C       0.87619   0.62241   0.62097  -0.12962
C          C       0.42143   0.27575   0.57076  -0.03406
C          C       0.44838   0.35817   0.54473   0.58595
C          C       0.37760   0.25376   0.62096  -0.12943
C          C       0.72423   0.14563   0.57078  -0.03389
C          C       0.64180   0.09018   0.54474   0.58621
C          C       0.74621   0.12379   0.62096  -0.12995
C          C       0.27575   0.42143   0.07076  -0.03420
C          C       0.35817   0.44838   0.04473   0.58601
C          C       0.25376   0.37760   0.12096  -0.12941
C          C       0.14563   0.72423   0.07078  -0.03395
C          C       0.09018   0.64180   0.04475   0.58618
C          C       0.12379   0.74620   0.12096  -0.12986
C          C       0.57858   0.85434   0.07077  -0.03406
C          C       0.55162   0.90980   0.04474   0.58598
C          C       0.62241   0.87619   0.12097  -0.12953
C          C       0.72425   0.57857   0.57076  -0.03409
C          C       0.64183   0.55162   0.54473   0.58594
C          C       0.74624   0.62240   0.62096  -0.12948
C          C       0.85437   0.27577   0.57078  -0.03392
C          C       0.90982   0.35820   0.54474   0.58628
C          C       0.87622   0.25379   0.62096  -0.13070
C          C       0.42142   0.14565   0.57077  -0.03400
C          C       0.44838   0.09020   0.54474   0.58603
C          C       0.37759   0.12381   0.62097  -0.13017
C          C       0.85435   0.57858   0.92923  -0.03404
C          C       0.90980   0.55162   0.95526   0.58596
C          C       0.87619   0.62241   0.87903  -0.12960
C          C       0.42143   0.27575   0.92924  -0.03403
C          C       0.44838   0.35817   0.95527   0.58591
C          C       0.37760   0.25376   0.87904  -0.12950
C          C       0.72423   0.14563   0.92922  -0.03394
C          C       0.64180   0.09018   0.95526   0.58621
C          C       0.74621   0.12379   0.87904  -0.13001
C          C       0.14566   0.42142   0.42923  -0.03400
C          C       0.09020   0.44838   0.45526   0.58602
C          C       0.12381   0.37759   0.37903  -0.13015
C          C       0.57857   0.72425   0.42924  -0.03424
C          C       0.55162   0.64183   0.45527   0.58601
C          C       0.62240   0.74624   0.37904  -0.12933
C          C       0.27577   0.85436   0.42922  -0.03395
C          C       0.35820   0.90982   0.45525   0.58618
C          C       0.25379   0.87621   0.37904  -0.13043
C          C       0.77885   0.55769   0.95468  -0.09771
C          C       0.82288   0.64571   0.85392   0.07943
C          C       0.84616   0.69228   0.80059  -0.06440
C          C       0.88957   0.77913   0.79984  -0.12595
C          C       0.77886   0.22115   0.95468  -0.09788
C          C       0.82286   0.17714   0.85392   0.07978
C          C       0.84614   0.15386   0.80059  -0.06445
C          C       0.88954   0.11046   0.79984  -0.12618
C          C       0.44231   0.22115   0.95468  -0.09779
C          C       0.35429   0.17713   0.85392   0.07938
C          C       0.30772   0.15384   0.80059  -0.06439
C          C       0.22087   0.11043   0.79984  -0.12594
C          C       0.22116   0.44231   0.45468  -0.09771
C          C       0.17713   0.35429   0.35392   0.07937
C          C       0.15384   0.30772   0.30059  -0.06443
C          C       0.11043   0.22087   0.29985  -0.12594
C          C       0.22115   0.77885   0.45468  -0.09779
C          C       0.17714   0.82286   0.35392   0.07962
C          C       0.15386   0.84614   0.30059  -0.06447
C          C       0.11046   0.88954   0.29985  -0.12608
C          C       0.55769   0.77884   0.45468  -0.09761
C          C       0.64571   0.82287   0.35392   0.07929
C          C       0.69228   0.84616   0.30059  -0.06432
C          C       0.77913   0.88957   0.29985  -0.12587
C          C       0.22115   0.44231   0.04532  -0.09774
C          C       0.17713   0.35429   0.14608   0.07938
C          C       0.15384   0.30772   0.19941  -0.06443
C          C       0.11043   0.22087   0.20015  -0.12589
C          C       0.55769   0.77884   0.04532  -0.09766
C          C       0.64571   0.82287   0.14608   0.07933
C          C       0.69228   0.84616   0.19941  -0.06432
C          C       0.77913   0.88957   0.20015  -0.12591
C          C       0.22115   0.77885   0.04532  -0.09780
C          C       0.17714   0.82286   0.14608   0.07962
C          C       0.15386   0.84614   0.19941  -0.06446
C          C       0.11046   0.88954   0.20015  -0.12609
C          C       0.77885   0.55769   0.54531  -0.09771
C          C       0.82288   0.64571   0.64608   0.07944
C          C       0.84616   0.69228   0.69941  -0.06446
C          C       0.88957   0.77913   0.70015  -0.12594
C          C       0.44231   0.22115   0.54531  -0.09768
C          C       0.35429   0.17713   0.64608   0.07936
C          C       0.30772   0.15384   0.69941  -0.06438
C          C       0.22087   0.11043   0.70015  -0.12591
C          C       0.77886   0.22115   0.54532  -0.09788
C          C       0.82286   0.17714   0.64608   0.07969
C          C       0.84614   0.15386   0.69941  -0.06445
C          C       0.88954   0.11046   0.70015  -0.12614
C          C       0.82388   0.64773   0.75000   0.21448
C          C       0.91154   0.82309   0.75000  -0.13157
C          C       0.82388   0.17612   0.75000   0.21391
C          C       0.91151   0.08849   0.75000  -0.13229
C          C       0.35227   0.17612   0.75000   0.21446
C          C       0.17691   0.08846   0.75000  -0.13166
C          C       0.17612   0.35226   0.25000   0.21458
C          C       0.08846   0.17691   0.25000  -0.13160
C          C       0.17612   0.82388   0.25000   0.21396
C          C       0.08849   0.91151   0.25000  -0.13119
C          C       0.64774   0.82388   0.25000   0.21439
C          C       0.82309   0.91154   0.25000  -0.13179
N          N       0.78104   0.56208   0.75000  -0.63026
N          N       0.78108   0.21892   0.75000  -0.62904
N          N       0.43792   0.21896   0.75000  -0.63026
N          N       0.21896   0.43792   0.25000  -0.63020
N          N       0.21892   0.78107   0.25000  -0.62894
N          N       0.56208   0.78104   0.25000  -0.63035
O          O       0.58908   0.56160   0.92724  -0.54055
O          O       0.62999   0.51937   0.00358  -0.54025
O          O       0.97258   0.41099   0.92723  -0.54036
O          O       0.88937   0.37001   0.00355  -0.54062
O          O       0.43840   0.02747   0.92723  -0.54077
O          O       0.48064   0.11063   0.00356  -0.54030
O          O       0.41092   0.43840   0.42724  -0.54043
O          O       0.37001   0.48063   0.50358  -0.54037
O          O       0.02742   0.58901   0.42723  -0.54033
O          O       0.11064   0.62999   0.50355  -0.54061
O          O       0.56160   0.97253   0.42723  -0.54089
O          O       0.51937   0.88937   0.50357  -0.54022
O          O       0.02747   0.43840   0.07277  -0.54075
O          O       0.11063   0.48063   0.99643  -0.54031
O          O       0.56160   0.58908   0.07276  -0.54039
O          O       0.51937   0.62998   0.99642  -0.54041
O          O       0.41099   0.97258   0.07277  -0.54043
O          O       0.37001   0.88936   0.99645  -0.54048
O          O       0.97254   0.56160   0.57277  -0.54072
O          O       0.88937   0.51936   0.49644  -0.54035
O          O       0.43840   0.41092   0.57276  -0.54055
O          O       0.48063   0.37001   0.49642  -0.54026
O          O       0.58901   0.02742   0.57277  -0.54039
O          O       0.62999   0.11063   0.49645  -0.54055
O          O       0.41092   0.43840   0.07276  -0.54042
O          O       0.37001   0.48063   0.99642  -0.54037
O          O       0.02742   0.58901   0.07277  -0.54033
O          O       0.11064   0.62999   0.99645  -0.54060
O          O       0.56160   0.97253   0.07277  -0.54082
O          O       0.51937   0.88937   0.99643  -0.54020
O          O       0.58908   0.56160   0.57276  -0.54057
O          O       0.62999   0.51937   0.49642  -0.54025
O          O       0.97258   0.41099   0.57277  -0.54043
O          O       0.88937   0.37001   0.49645  -0.54058
O          O       0.43840   0.02747   0.57277  -0.54086
O          O       0.48064   0.11063   0.49644  -0.54026
O          O       0.97254   0.56160   0.92723  -0.54067
O          O       0.88937   0.51936   0.00356  -0.54036
O          O       0.43840   0.41092   0.92724  -0.54051
O          O       0.48063   0.37001   0.00358  -0.54026
O          O       0.58901   0.02742   0.92723  -0.54038
O          O       0.62999   0.11063   0.00355  -0.54057
O          O       0.02747   0.43840   0.42723  -0.54075
O          O       0.11063   0.48063   0.50357  -0.54030
O          O       0.56160   0.58908   0.42724  -0.54040
O          O       0.51937   0.62998   0.50358  -0.54040
O          O       0.41099   0.97258   0.42723  -0.54043
O          O       0.37001   0.88936   0.50355  -0.54051

