data_crystal

_audit_creation_method 'AiiDA-DDEC plugin'

_cell_length_a        16.70936
_cell_length_b        16.71044
_cell_length_c        17.84024

_cell_angle_alpha     117.98436
_cell_angle_beta     117.97806
_cell_angle_gamma     89.92593

_symmetry_space_group_name_Hall 'P 1'
_symmetry_space_group_name_H-M  'P 1'

loop_
_symmetry_equiv_pos_as_xyz
 'x,y,z'

loop_
_atom_site_label
_atom_site_type_symbol
_atom_site_fract_x
_atom_site_fract_y
_atom_site_fract_z
_atom_site_charge
Ag         Ag      0.36465   0.36499   0.72972   0.49553
Ag         Ag      0.63496   0.63537   0.27022   0.49539
Ag         Ag      0.88537   0.38498   0.77023   0.49504
Ag         Ag      0.61496   0.11465   0.22973   0.49571
H          H       0.11608   0.03647   0.46030   0.11221
H          H       0.05339   0.86610   0.33445   0.10518
H          H       0.33739   0.83930   0.44078   0.10125
H          H       0.40091   0.00888   0.56359   0.11015
H          H       0.17017   0.72653   0.19202   0.10510
H          H       0.27204   0.72255   0.28578   0.09778
H          H       0.26372   0.70993   0.42156   0.09383
H          H       0.01816   0.72557   0.19517   0.08922
H          H       0.01623   0.71843   0.29058   0.08746
H          H       0.03188   0.47771   0.06181   0.09400
H          H       0.13421   0.43955   0.86057   0.11504
H          H       0.06901   0.49585   0.96680   0.08767
H          H       0.34955   0.60411   0.23002   0.10679
H          H       0.41601   0.54690   0.12333   0.10936
H          H       0.34426   0.42384   0.46037   0.11229
H          H       0.28110   0.46824   0.33444   0.10506
H          H       0.10339   0.60139   0.44051   0.10186
H          H       0.16268   0.55472   0.56344   0.10987
H          H       0.02185   0.46533   0.19184   0.10555
H          H       0.01380   0.56310   0.28562   0.09807
H          H       0.15799   0.71156   0.42153   0.09353
H          H       0.17707   0.46960   0.19515   0.08909
H          H       0.27444   0.57215   0.29061   0.08664
H          H       0.03007   0.58405   0.06186   0.09426
H          H       0.72625   0.42094   0.86054   0.11457
H          H       0.89766   0.47077   0.96665   0.08821
H          H       0.88045   0.62577   0.22999   0.10611
H          H       0.70735   0.57630   0.12326   0.10970
H          H       0.57592   0.88381   0.53975   0.11281
H          H       0.53155   0.94657   0.66579   0.10446
H          H       0.39876   0.66257   0.55925   0.10112
H          H       0.44549   0.59907   0.43631   0.11003
H          H       0.53472   0.82972   0.80813   0.10544
H          H       0.43707   0.72792   0.71432   0.09838
H          H       0.28853   0.73625   0.57841   0.09380
H          H       0.53042   0.98167   0.80491   0.08917
H          H       0.42778   0.98362   0.70948   0.08679
H          H       0.41594   0.96814   0.93811   0.09417
H          H       0.57918   0.86580   0.13944   0.11466
H          H       0.52933   0.93097   0.03320   0.08742
H          H       0.37428   0.65046   0.76995   0.10685
H          H       0.42374   0.58406   0.87670   0.10989
H          H       0.96372   0.65595   0.53973   0.11306
H          H       0.13406   0.71905   0.66565   0.10516
H          H       0.16060   0.89651   0.55919   0.10132
H          H       0.99102   0.83728   0.43635   0.10988
H          H       0.27340   0.97825   0.80801   0.10597
H          H       0.27733   0.98625   0.71428   0.09875
H          H       0.29007   0.84199   0.57849   0.09383
H          H       0.27455   0.82305   0.80475   0.08885
H          H       0.28173   0.72557   0.70933   0.08651
H          H       0.52231   0.96987   0.93820   0.09313
H          H       0.56034   0.27375   0.13950   0.11457
H          H       0.50405   0.10236   0.03336   0.08777
H          H       0.39575   0.11953   0.77003   0.10650
H          H       0.45300   0.29261   0.87674   0.11097
H          H       0.13381   0.32595   0.03981   0.11292
H          H       0.19658   0.28161   0.16585   0.10450
H          H       0.91259   0.14878   0.05930   0.10106
H          H       0.84907   0.19549   0.93636   0.11004
H          H       0.07971   0.28468   0.30810   0.10575
H          H       0.97792   0.18701   0.21429   0.09840
H          H       0.98627   0.03848   0.07840   0.09381
H          H       0.23167   0.28038   0.30489   0.08909
H          H       0.23364   0.17774   0.20945   0.08673
H          H       0.21815   0.16592   0.43810   0.09409
H          H       0.11579   0.32919   0.63944   0.11466
H          H       0.18098   0.27930   0.53320   0.08758
H          H       0.90046   0.12434   0.26996   0.10670
H          H       0.83406   0.17380   0.37671   0.10995
H          H       0.90594   0.71369   0.03969   0.11308
H          H       0.96903   0.88401   0.16556   0.10499
H          H       0.14653   0.91055   0.05919   0.10114
H          H       0.08731   0.74098   0.93634   0.11005
H          H       0.22827   0.02340   0.30802   0.10589
H          H       0.23628   0.02730   0.21429   0.09878
H          H       0.09201   0.04002   0.07846   0.09401
H          H       0.07304   0.02453   0.30474   0.08888
H          H       0.97559   0.03171   0.20933   0.08647
H          H       0.21988   0.27230   0.43819   0.09322
H          H       0.52373   0.31034   0.63947   0.11464
H          H       0.35234   0.25403   0.53333   0.08780
H          H       0.36954   0.14576   0.27002   0.10658
H          H       0.54263   0.20303   0.37677   0.11072
H          H       0.67385   0.09429   0.96037   0.11256
H          H       0.71828   0.03114   0.83446   0.10528
H          H       0.85137   0.85339   0.94049   0.10197
H          H       0.80470   0.91266   0.06341   0.11006
H          H       0.71530   0.77187   0.69181   0.10530
H          H       0.81304   0.76380   0.78558   0.09778
H          H       0.96153   0.90797   0.92150   0.09349
H          H       0.71957   0.92706   0.69514   0.08898
H          H       0.82214   0.02443   0.79060   0.08659
H          H       0.83405   0.78008   0.56186   0.09432
H          H       0.67093   0.47625   0.36053   0.11465
H          H       0.72074   0.64765   0.46664   0.08840
H          H       0.87579   0.63045   0.72999   0.10611
H          H       0.82632   0.45735   0.62326   0.10978
H          H       0.28645   0.86608   0.96032   0.11226
H          H       0.11608   0.80338   0.83444   0.10505
H          H       0.08927   0.08739   0.94075   0.10155
H          H       0.25887   0.15088   0.06357   0.11030
H          H       0.97651   0.92017   0.69201   0.10514
H          H       0.97254   0.02203   0.78577   0.09784
H          H       0.95992   0.01370   0.92155   0.09383
H          H       0.97555   0.76817   0.69517   0.08920
H          H       0.96841   0.76623   0.79056   0.08739
H          H       0.72768   0.78187   0.56178   0.09397
H          H       0.68951   0.88421   0.36056   0.11489
H          H       0.74581   0.81901   0.46678   0.08773
H          H       0.85411   0.09954   0.73001   0.10675
H          H       0.79689   0.16600   0.62332   0.10938
C          C       0.29841   0.13178   0.59736   0.24901
C          C       0.26328   0.03556   0.52304  -0.00338
C          C       0.16403   0.99288   0.45566  -0.13252
C          C       0.12943   0.89657   0.38504  -0.14383
C          C       0.18959   0.83779   0.37824   0.05380
C          C       0.28817   0.88165   0.44408  -0.13767
C          C       0.32485   0.97762   0.51442  -0.12600
C          C       0.15367   0.73108   0.30819   0.14330
C          C       0.19459   0.69703   0.23998  -0.25804
C          C       0.04520   0.69519   0.24218  -0.26294
C          C       0.16313   0.58782   0.17404   0.14067
C          C       0.31328   0.45368   0.91903   0.27891
C          C       0.27951   0.48891   0.98449   0.02115
C          C       0.18135   0.47549   0.94143  -0.11259
C          C       0.14496   0.50783   0.00267  -0.14178
C          C       0.20374   0.55394   0.10744   0.07938
C          C       0.30178   0.56771   0.14919  -0.13188
C          C       0.34012   0.53581   0.08951  -0.10170
C          C       0.29864   0.46559   0.59716   0.25020
C          C       0.25967   0.48751   0.52289  -0.00299
C          C       0.29163   0.46275   0.45561  -0.13298
C          C       0.25564   0.48840   0.38498  -0.14453
C          C       0.18874   0.54042   0.37816   0.05436
C          C       0.15589   0.56237   0.44386  -0.13826
C          C       0.18948   0.53681   0.51421  -0.12513
C          C       0.15456   0.57703   0.30812   0.14365
C          C       0.04545   0.54283   0.23987  -0.25839
C          C       0.19705   0.54698   0.24219  -0.26172
C          C       0.01098   0.58615   0.17402   0.14072
C          C       0.60567   0.46550   0.91906   0.27917
C          C       0.70490   0.49549   0.98446   0.02231
C          C       0.75996   0.46586   0.94139  -0.11227
C          C       0.85762   0.49470   0.00258  -0.14263
C          C       0.90370   0.55340   0.10738   0.07872
C          C       0.84742   0.58135   0.14915  -0.13013
C          C       0.74939   0.55358   0.08945  -0.10308
C          C       0.18646   0.68637   0.37279  -0.26447
C          C       0.05516   0.55509   0.11025  -0.25931
C          C       0.53446   0.70159   0.40280   0.24949
C          C       0.51252   0.73670   0.47709  -0.00223
C          C       0.53713   0.83595   0.54450  -0.13509
C          C       0.51149   0.87054   0.61514  -0.14262
C          C       0.45959   0.81036   0.62184   0.05436
C          C       0.43773   0.71178   0.55599  -0.13711
C          C       0.46333   0.67510   0.48565  -0.12607
C          C       0.42300   0.84625   0.69190   0.14339
C          C       0.45725   0.80535   0.76009  -0.25835
C          C       0.45302   0.95470   0.75790  -0.26190
C          C       0.41394   0.83689   0.82596   0.13938
C          C       0.53454   0.68677   0.08099   0.27884
C          C       0.50456   0.72053   0.01555   0.02128
C          C       0.53423   0.81867   0.05858  -0.11299
C          C       0.50541   0.85505   0.99733  -0.14140
C          C       0.44671   0.79628   0.89256   0.07835
C          C       0.41873   0.69825   0.85080  -0.13119
C          C       0.44646   0.65994   0.91051  -0.10214
C          C       0.86824   0.70132   0.40261   0.24902
C          C       0.96448   0.74038   0.47694  -0.00272
C          C       0.00720   0.70853   0.54436  -0.13410
C          C       0.10353   0.74448   0.61502  -0.14396
C          C       0.16223   0.81134   0.62175   0.05382
C          C       0.11831   0.84409   0.55593  -0.13765
C          C       0.02236   0.81049   0.48558  -0.12539
C          C       0.26894   0.84551   0.69184   0.14340
C          C       0.30292   0.95464   0.76007  -0.26022
C          C       0.30492   0.80299   0.75775  -0.26104
C          C       0.41212   0.98904   0.82600   0.14034
C          C       0.54640   0.39429   0.08097   0.27944
C          C       0.51101   0.29507   0.01557   0.02209
C          C       0.52441   0.24003   0.05865  -0.11250
C          C       0.49207   0.14237   0.99743  -0.14182
C          C       0.44596   0.09631   0.89263   0.07830
C          C       0.43218   0.15256   0.85087  -0.12982
C          C       0.46409   0.25059   0.91057  -0.10461
C          C       0.31364   0.81351   0.62721  -0.26421
C          C       0.44493   0.94485   0.88975  -0.25742
C          C       0.95158   0.28442   0.90280   0.24902
C          C       0.98668   0.26248   0.97706  -0.00217
C          C       0.08592   0.28714   0.04451  -0.13518
C          C       0.12054   0.26151   0.11516  -0.14247
C          C       0.06035   0.20959   0.12184   0.05429
C          C       0.96177   0.18772   0.05600  -0.13725
C          C       0.92509   0.21331   0.98565  -0.12626
C          C       0.09623   0.17295   0.19187   0.14332
C          C       0.05535   0.20720   0.26008  -0.25878
C          C       0.20470   0.20297   0.25788  -0.26156
C          C       0.08686   0.16390   0.32594   0.13963
C          C       0.93677   0.28458   0.58099   0.27926
C          C       0.97051   0.25458   0.51553   0.02153
C          C       0.06865   0.28423   0.55857  -0.11302
C          C       0.10504   0.25539   0.49733  -0.14143
C          C       0.04626   0.19670   0.39255   0.07856
C          C       0.94824   0.16876   0.35080  -0.13103
C          C       0.90993   0.19649   0.41050  -0.10242
C          C       0.95131   0.61824   0.90261   0.24848
C          C       0.99039   0.71445   0.97694  -0.00230
C          C       0.95853   0.75718   0.04433  -0.13445
C          C       0.99450   0.85350   0.11499  -0.14346
C          C       0.06134   0.91221   0.12174   0.05322
C          C       0.09411   0.86828   0.05594  -0.13728
C          C       0.06052   0.77232   0.98557  -0.12576
C          C       0.09552   0.01890   0.19183   0.14395
C          C       0.20464   0.05287   0.26005  -0.26012
C          C       0.05299   0.05488   0.25774  -0.26130
C          C       0.23903   0.16207   0.32598   0.14009
C          C       0.64430   0.29643   0.58101   0.27960
C          C       0.54508   0.26103   0.51558   0.02207
C          C       0.49002   0.27441   0.55863  -0.11287
C          C       0.39237   0.24206   0.49741  -0.14149
C          C       0.34631   0.19595   0.39262   0.07838
C          C       0.40257   0.18218   0.35086  -0.13013
C          C       0.50061   0.21411   0.41058  -0.10425
C          C       0.06353   0.06359   0.12720  -0.26463
C          C       0.19483   0.19490   0.38974  -0.25738
C          C       0.71560   0.04864   0.09717   0.25036
C          C       0.73749   0.00966   0.02287  -0.00321
C          C       0.71275   0.04166   0.95562  -0.13324
C          C       0.73840   0.00568   0.88500  -0.14472
C          C       0.79038   0.93874   0.87816   0.05457
C          C       0.81236   0.90590   0.94387  -0.13862
C          C       0.78679   0.93947   0.01421  -0.12505
C          C       0.82700   0.90456   0.80812   0.14327
C          C       0.79280   0.79543   0.73983  -0.25784
C          C       0.79696   0.94704   0.74217  -0.26151
C          C       0.83615   0.76096   0.67398   0.14063
C          C       0.71551   0.35568   0.41907   0.27936
C          C       0.74550   0.45491   0.48445   0.02228
C          C       0.71584   0.50997   0.44137  -0.11241
C          C       0.74469   0.60763   0.50256  -0.14269
C          C       0.80339   0.65368   0.60736   0.07873
C          C       0.83136   0.59743   0.64915  -0.13016
C          C       0.80359   0.49939   0.58945  -0.10306
C          C       0.38177   0.04841   0.09733   0.24904
C          C       0.28555   0.01327   0.02305  -0.00345
C          C       0.24287   0.91403   0.95566  -0.13260
C          C       0.14655   0.87942   0.88503  -0.14389
C          C       0.08775   0.93958   0.87824   0.05372
C          C       0.13163   0.03817   0.94404  -0.13815
C          C       0.22760   0.07484   0.01439  -0.12581
C          C       0.98106   0.90367   0.80813   0.14349
C          C       0.94701   0.94459   0.73996  -0.25783
C          C       0.94517   0.79520   0.74216  -0.26290
C          C       0.83783   0.91312   0.67404   0.14052
C          C       0.70365   0.06329   0.41902   0.27853
C          C       0.73889   0.02952   0.48447   0.02114
C          C       0.72545   0.93135   0.44142  -0.11238
C          C       0.75780   0.89495   0.50265  -0.14183
C          C       0.80393   0.95373   0.60743   0.07935
C          C       0.81770   0.05177   0.64918  -0.13210
C          C       0.78580   0.09011   0.58950  -0.10148
C          C       0.93635   0.93645   0.87277  -0.26458
C          C       0.80508   0.80515   0.61023  -0.25914
N          N       0.32649   0.21208   0.66208  -0.42499
N          N       0.33472   0.42201   0.85942  -0.39057
N          N       0.33528   0.45003   0.66187  -0.42602
N          N       0.52461   0.43779   0.85952  -0.39095
N          N       0.55000   0.67361   0.33811  -0.42502
N          N       0.56216   0.66534   0.14062  -0.39058
N          N       0.78794   0.66466   0.33792  -0.42473
N          N       0.57824   0.47536   0.14051  -0.39128
N          N       0.92361   0.29994   0.83808  -0.42465
N          N       0.91532   0.31219   0.64059  -0.39077
N          N       0.91463   0.53793   0.83793  -0.42441
N          N       0.72535   0.32824   0.64055  -0.39104
N          N       0.70003   0.08528   0.16188  -0.42615
N          N       0.68780   0.27461   0.35954  -0.39125
N          N       0.46207   0.07654   0.16208  -0.42504
N          N       0.67196   0.08473   0.35942  -0.39023

