data_crystal

_audit_creation_method 'AiiDA-DDEC plugin'

_cell_length_a        10.83112
_cell_length_b        19.88196
_cell_length_c        25.99526

_cell_angle_alpha     101.35062
_cell_angle_beta     101.80204
_cell_angle_gamma     94.60980

_symmetry_space_group_name_Hall 'P 1'
_symmetry_space_group_name_H-M  'P 1'

loop_
_symmetry_equiv_pos_as_xyz
 'x,y,z'

loop_
_atom_site_label
_atom_site_type_symbol
_atom_site_fract_x
_atom_site_fract_y
_atom_site_fract_z
_atom_site_charge
Ba         Ba      0.82297   0.18146   0.29046   1.48977
Ba         Ba      0.53029   0.30038   0.18980   1.53036
Ba         Ba      0.46517   0.20976   0.34178   1.54991
Ba         Ba      0.92030   0.36374   0.23008   1.56482
Ba         Ba      0.15244   0.19850   0.21457   1.51651
Ba         Ba      0.17698   0.81855   0.70955   1.48969
Ba         Ba      0.46970   0.69962   0.81019   1.53029
Ba         Ba      0.53482   0.79024   0.65822   1.54999
Ba         Ba      0.07970   0.63627   0.76992   1.56480
Ba         Ba      0.84752   0.80148   0.78548   1.51643
H          H       0.88968   0.21075   0.72260   0.09372
H          H       0.95308   0.12392   0.45358   0.10758
H          H       0.91193   0.71648   0.53393   0.11566
H          H       0.09316   0.79652   0.14568   0.10792
H          H       0.67065   0.49857   0.82748   0.10484
H          H       0.67184   0.89222   0.87065   0.08224
H          H       0.85782   0.11532   0.10605   0.12485
H          H       0.71685   0.01314   0.10795   0.11544
H          H       0.91546   0.28524   0.65737   0.09791
H          H       0.66278   0.65657   0.91337   0.10344
H          H       0.75178   0.82203   0.44721   0.10202
H          H       0.93870   0.86555   0.18229   0.10890
H          H       0.43912   0.95248   0.81727   0.14594
H          H       0.72437   0.19370   0.48038   0.12011
H          H       0.84579   0.67527   0.36121   0.09985
H          H       0.80024   0.93298   0.31309   0.11817
H          H       0.86339   0.52086   0.62516   0.09435
H          H       0.73744   0.81236   0.01488   0.10690
H          H       0.75962   0.89340   0.10383   0.09979
H          H       0.75609   0.91171   0.19030   0.10379
H          H       0.55096   0.36438   0.00559   0.10483
H          H       0.66935   0.85059   0.93154   0.10333
H          H       0.41385   0.82887   0.31017   0.10499
H          H       0.84810   0.57282   0.86065   0.12654
H          H       0.62343   0.51248   0.09478   0.10719
H          H       0.56205   0.04575   0.83683   0.11116
H          H       0.70639   0.61023   0.60751   0.13763
H          H       0.73278   0.68922   0.99467   0.10521
H          H       0.89645   0.75821   0.45056   0.09672
H          H       0.86293   0.59358   0.25553   0.10143
H          H       0.84158   0.02106   0.41410   0.11472
H          H       0.09291   0.67251   0.15183   0.10109
H          H       0.81187   0.35300   0.45116   0.10753
H          H       0.65346   0.37431   0.78766   0.09933
H          H       0.96253   0.90820   0.62916   0.14355
H          H       0.79025   0.89511   0.38319   0.10066
H          H       0.93908   0.61887   0.19375   0.10704
H          H       0.85534   0.08408   0.69207   0.10822
H          H       0.64291   0.63591   0.13623   0.09920
H          H       0.58411   0.15040   0.08165   0.10905
H          H       0.73286   0.98158   0.65052   0.10631
H          H       0.57329   0.56333   0.21775   0.11889
H          H       0.70697   0.72478   0.08751   0.09996
H          H       0.58860   0.20155   0.01469   0.11098
H          H       0.56700   0.88076   0.26600   0.11068
H          H       0.51492   0.16503   0.84213   0.09728
H          H       0.81665   0.55000   0.35600   0.10719
H          H       0.83376   0.39577   0.62130   0.10018
H          H       0.77756   0.87399   0.54348   0.09668
H          H       0.52063   0.24209   0.93142   0.09956
H          H       0.97946   0.66727   0.60731   0.11731
H          H       0.43186   0.71055   0.32784   0.10458
H          H       0.63834   0.38099   0.39471   0.12436
H          H       0.59124   0.64224   0.29555   0.10783
H          H       0.86592   0.44738   0.36093   0.10577
H          H       0.80981   0.31176   0.53350   0.09469
H          H       0.78632   0.43186   0.09409   0.12775
H          H       0.90524   0.23221   0.56261   0.09208
H          H       0.66753   0.32708   0.94294   0.10296
H          H       0.65805   0.28794   0.84571   0.10390
H          H       0.11032   0.78925   0.27740   0.09371
H          H       0.04692   0.87609   0.54642   0.10751
H          H       0.08807   0.28352   0.46607   0.11570
H          H       0.90684   0.20348   0.85432   0.10786
H          H       0.32935   0.50143   0.17252   0.10469
H          H       0.32816   0.10778   0.12935   0.08228
H          H       0.14218   0.88468   0.89395   0.12486
H          H       0.28315   0.98686   0.89204   0.11555
H          H       0.08454   0.71476   0.34263   0.09798
H          H       0.33722   0.34343   0.08662   0.10340
H          H       0.24821   0.17797   0.55278   0.10206
H          H       0.06130   0.13446   0.81771   0.10881
H          H       0.56087   0.04752   0.18273   0.14585
H          H       0.27562   0.80630   0.51962   0.12011
H          H       0.15420   0.32473   0.63878   0.09965
H          H       0.19976   0.06703   0.68691   0.11827
H          H       0.13661   0.47914   0.37484   0.09448
H          H       0.26256   0.18764   0.98512   0.10699
H          H       0.24037   0.10661   0.89617   0.09995
H          H       0.24391   0.08829   0.80969   0.10361
H          H       0.44904   0.63562   0.99440   0.10486
H          H       0.33065   0.14941   0.06846   0.10330
H          H       0.58615   0.17113   0.68982   0.10498
H          H       0.15190   0.42718   0.13935   0.12660
H          H       0.37656   0.48752   0.90522   0.10733
H          H       0.43795   0.95425   0.16317   0.11112
H          H       0.29362   0.38978   0.39250   0.13763
H          H       0.26721   0.31078   0.00533   0.10512
H          H       0.10355   0.24179   0.54944   0.09669
H          H       0.13707   0.40642   0.74447   0.10156
H          H       0.15842   0.97894   0.58591   0.11458
H          H       0.90708   0.32749   0.84817   0.10110
H          H       0.18813   0.64700   0.54884   0.10744
H          H       0.34654   0.62569   0.21234   0.09914
H          H       0.03755   0.09180   0.37092   0.14361
H          H       0.20975   0.10489   0.61680   0.10054
H          H       0.06091   0.38113   0.80625   0.10710
H          H       0.14465   0.91592   0.30793   0.10838
H          H       0.35709   0.36409   0.86377   0.09932
H          H       0.41589   0.84960   0.91835   0.10898
H          H       0.26717   0.01841   0.34949   0.10622
H          H       0.42671   0.43667   0.78225   0.11887
H          H       0.29303   0.27522   0.91248   0.09999
H          H       0.41140   0.79845   0.98531   0.11098
H          H       0.43300   0.11924   0.73400   0.11060
H          H       0.48508   0.83497   0.15787   0.09720
H          H       0.18335   0.45000   0.64399   0.10714
H          H       0.16624   0.60423   0.37869   0.10033
H          H       0.22244   0.12600   0.45652   0.09684
H          H       0.47937   0.75791   0.06858   0.09946
H          H       0.02055   0.33274   0.39269   0.11725
H          H       0.56814   0.28945   0.67216   0.10465
H          H       0.36166   0.61901   0.60529   0.12441
H          H       0.40876   0.35776   0.70445   0.10801
H          H       0.13407   0.55263   0.63906   0.10563
H          H       0.19019   0.68824   0.46650   0.09472
H          H       0.21368   0.56814   0.90591   0.12779
H          H       0.09476   0.76778   0.43738   0.09217
H          H       0.33247   0.67292   0.05706   0.10305
H          H       0.34194   0.71206   0.15429   0.10396
C          C       0.51919   0.86574   0.77732   0.64286
C          C       0.78546   0.18717   0.16494   0.64757
C          C       0.85268   0.88452   0.68689   0.64547
C          C       0.88169   0.18712   0.68040  -0.08792
C          C       0.88015   0.13600   0.47620  -0.04148
C          C       0.81277   0.21226   0.41446   0.63667
C          C       0.82102   0.68998   0.67451   0.65356
C          C       0.66168   0.45635   0.99591   0.02548
C          C       0.88953   0.67957   0.49538  -0.13736
C          C       0.02476   0.77315   0.16446  -0.09070
C          C       0.67333   0.46158   0.85321  -0.13485
C          C       0.60533   0.93062   0.87029  -0.06514
C          C       0.61941   0.98078   0.92073   0.00358
C          C       0.80008   0.67092   0.84150   0.64177
C          C       0.66852   0.52755   0.01985   0.02819
C          C       0.83129   0.01052   0.59075   0.00620
C          C       0.77302   0.13825   0.11296  -0.24602
C          C       0.65892   0.34470   0.10206   0.63721
C          C       0.69108   0.57883   0.98926   0.03534
C          C       0.84349   0.02200   0.49862   0.02779
C          C       0.71096   0.97922   0.06905  -0.12477
C          C       0.89634   0.22928   0.64337  -0.09427
C          C       0.71372   0.61202   0.90458  -0.04461
C          C       0.86458   0.09502   0.51616   0.01007
C          C       0.78044   0.87731   0.46204  -0.08970
C          C       0.60718   0.09691   0.97451   0.02412
C          C       0.79388   0.02215   0.27541   0.60021
C          C       0.66809   0.79127   0.25388   0.02202
C          C       0.68215   0.33867   0.31781   0.64404
C          C       0.69664   0.48449   0.23665   0.65083
C          C       0.93815   0.81150   0.18460  -0.13239
C          C       0.51742   0.92172   0.82357  -0.24294
C          C       0.59486   0.05058   0.92287   0.04102
C          C       0.68275   0.48652   0.90952   0.03731
C          C       0.80462   0.18295   0.46203  -0.25718
C          C       0.85442   0.65575   0.39792  -0.08622
C          C       0.84910   0.71125   0.21442   0.02473
C          C       0.78665   0.94635   0.27383  -0.20904
C          C       0.84888   0.48443   0.58679  -0.14539
C          C       0.72132   0.86597   0.01647  -0.07117
C          C       0.73443   0.91195   0.06686  -0.08915
C          C       0.76525   0.89624   0.22885  -0.09840
C          C       0.63388   0.40269   0.02492  -0.05500
C          C       0.68376   0.88811   0.96943  -0.15376
C          C       0.76089   0.68040   0.23949  -0.00170
C          C       0.48658   0.79964   0.29681  -0.08934
C          C       0.78848   0.61331   0.86889  -0.27380
C          C       0.64914   0.55068   0.07291  -0.12852
C          C       0.87169   0.60731   0.49410   0.03146
C          C       0.82558   0.97919   0.53617   0.03308
C          C       0.56400   0.07827   0.87579  -0.13766
C          C       0.80042   0.63993   0.62258  -0.28138
C          C       0.67142   0.43585   0.94164   0.02008
C          C       0.70805   0.65012   0.01600  -0.13838
C          C       0.85193   0.08353   0.60810   0.02541
C          C       0.66075   0.95797   0.96951   0.02858
C          C       0.88156   0.70298   0.44859  -0.08725
C          C       0.76798   0.60836   0.24377  -0.07417
C          C       0.64909   0.07409   0.02284   0.01782
C          C       0.84712   0.78220   0.20945   0.01843
C          C       0.83118   0.98957   0.44321  -0.13114
C          C       0.02512   0.70292   0.16827  -0.08482
C          C       0.81852   0.39021   0.48855  -0.13417
C          C       0.86747   0.12643   0.57044   0.02894
C          C       0.75850   0.82222   0.23018   0.01671
C          C       0.66308   0.39201   0.83080  -0.09153
C          C       0.87820   0.91976   0.64430  -0.25492
C          C       0.86993   0.58289   0.54158   0.00545
C          C       0.80114   0.91914   0.42552  -0.07792
C          C       0.93955   0.67313   0.19232  -0.13419
C          C       0.84849   0.51100   0.53947   0.02855
C          C       0.67588   0.00503   0.02111   0.02387
C          C       0.67072   0.72021   0.25957   0.02985
C          C       0.86129   0.11631   0.66315  -0.13714
C          C       0.65995   0.61982   0.09613  -0.08349
C          C       0.66459   0.12314   0.07451  -0.03725
C          C       0.80911   0.96916   0.62978  -0.05857
C          C       0.84804   0.55902   0.44285   0.02947
C          C       0.67185   0.55631   0.23258  -0.23831
C          C       0.69344   0.67018   0.06794  -0.08063
C          C       0.58047   0.16637   0.97602  -0.12371
C          C       0.69675   0.55817   0.93421   0.00282
C          C       0.82826   0.48697   0.44049   0.00569
C          C       0.57145   0.82840   0.27201  -0.13826
C          C       0.83018   0.46226   0.48839   0.03029
C          C       0.53860   0.14553   0.87880  -0.08446
C          C       0.83857   0.58565   0.39515  -0.13373
C          C       0.83253   0.41463   0.58467  -0.08353
C          C       0.79378   0.90631   0.51575  -0.13851
C          C       0.54407   0.18960   0.92940  -0.08873
C          C       0.88955   0.63296   0.59320  -0.03572
C          C       0.49557   0.73197   0.30607  -0.08843
C          C       0.70786   0.38692   0.37052  -0.24863
C          C       0.58450   0.69370   0.28791  -0.14140
C          C       0.80453   0.43888   0.38812  -0.03666
C          C       0.81804   0.36698   0.53491  -0.08535
C          C       0.69996   0.39712   0.07337  -0.24342
C          C       0.89027   0.19966   0.59027  -0.13838
C          C       0.66738   0.36448   0.91754  -0.13158
C          C       0.66325   0.34271   0.86357  -0.08882
C          C       0.48080   0.13426   0.22268   0.64286
C          C       0.21453   0.81283   0.83506   0.64758
C          C       0.14734   0.11551   0.31320   0.64512
C          C       0.11831   0.81288   0.31960  -0.08781
C          C       0.11984   0.86400   0.52380  -0.04127
C          C       0.18722   0.78774   0.58554   0.63669
C          C       0.17899   0.31003   0.32549   0.65346
C          C       0.33831   0.54365   0.00409   0.02554
C          C       0.11046   0.32043   0.50462  -0.13727
C          C       0.97523   0.22685   0.83554  -0.09069
C          C       0.32667   0.53842   0.14679  -0.13489
C          C       0.39467   0.06938   0.12970  -0.06520
C          C       0.38058   0.01922   0.07927   0.00371
C          C       0.19991   0.32907   0.15850   0.64192
C          C       0.33148   0.47245   0.98015   0.02819
C          C       0.16875   0.98946   0.40926   0.00596
C          C       0.22698   0.86175   0.88704  -0.24608
C          C       0.34107   0.65530   0.89793   0.63722
C          C       0.30892   0.42117   0.01074   0.03527
C          C       0.15651   0.97799   0.50139   0.02785
C          C       0.28904   0.02078   0.93095  -0.12477
C          C       0.10366   0.77071   0.35663  -0.09435
C          C       0.28627   0.38798   0.09542  -0.04469
C          C       0.13542   0.90497   0.48384   0.01001
C          C       0.21956   0.12269   0.53795  -0.08992
C          C       0.39282   0.90309   0.02549   0.02423
C          C       0.20612   0.97785   0.72459   0.60015
C          C       0.33191   0.20873   0.74611   0.02179
C          C       0.31785   0.66133   0.68219   0.64392
C          C       0.30336   0.51552   0.76336   0.65077
C          C       0.06185   0.18851   0.81540  -0.13240
C          C       0.48258   0.07828   0.17643  -0.24285
C          C       0.40513   0.94942   0.07712   0.04082
C          C       0.31725   0.51348   0.09047   0.03733
C          C       0.19537   0.81705   0.53797  -0.25718
C          C       0.14558   0.34425   0.60208  -0.08615
C          C       0.15089   0.28875   0.78557   0.02470
C          C       0.21335   0.05365   0.72616  -0.20899
C          C       0.15111   0.51557   0.41321  -0.14534
C          C       0.27868   0.13403   0.98353  -0.07127
C          C       0.26557   0.08805   0.93313  -0.08901
C          C       0.23475   0.10376   0.77115  -0.09829
C          C       0.36612   0.59731   0.97508  -0.05517
C          C       0.31623   0.11189   0.03057  -0.15380
C          C       0.23910   0.31960   0.76051  -0.00173
C          C       0.51341   0.20037   0.70319  -0.08935
C          C       0.21152   0.38668   0.13111  -0.27387
C          C       0.35086   0.44932   0.92709  -0.12844
C          C       0.12831   0.39270   0.50590   0.03139
C          C       0.17443   0.02081   0.46383   0.03312
C          C       0.43600   0.92173   0.12421  -0.13768
C          C       0.19959   0.36008   0.37742  -0.28147
C          C       0.32857   0.56415   0.05836   0.01998
C          C       0.29195   0.34988   0.98400  -0.13839
C          C       0.14808   0.91645   0.39190   0.02557
C          C       0.33925   0.04203   0.03049   0.02860
C          C       0.11844   0.29702   0.55141  -0.08729
C          C       0.23202   0.39164   0.75623  -0.07410
C          C       0.35091   0.92591   0.97716   0.01776
C          C       0.15288   0.21780   0.79055   0.01844
C          C       0.16881   0.01043   0.55679  -0.13134
C          C       0.97488   0.29708   0.83173  -0.08487
C          C       0.18147   0.60979   0.51145  -0.13424
C          C       0.13252   0.87356   0.42956   0.02879
C          C       0.24150   0.17778   0.76982   0.01671
C          C       0.33692   0.60799   0.16920  -0.09145
C          C       0.12186   0.08024   0.35577  -0.25481
C          C       0.13007   0.41712   0.45842   0.00530
C          C       0.19886   0.08086   0.57447  -0.07783
C          C       0.06045   0.32687   0.80768  -0.13412
C          C       0.15151   0.48900   0.46053   0.02861
C          C       0.32412   0.99497   0.97889   0.02382
C          C       0.32927   0.27979   0.74043   0.02990
C          C       0.13871   0.88369   0.33685  -0.13712
C          C       0.34004   0.38019   0.90386  -0.08353
C          C       0.33541   0.87686   0.92548  -0.03712
C          C       0.19095   0.03083   0.37025  -0.05833
C          C       0.15196   0.44098   0.55715   0.02952
C          C       0.32815   0.44369   0.76742  -0.23845
C          C       0.30656   0.32982   0.93206  -0.08067
C          C       0.41953   0.83363   0.02397  -0.12361
C          C       0.30324   0.44183   0.06579   0.00302
C          C       0.17174   0.51303   0.55950   0.00573
C          C       0.42855   0.17160   0.72799  -0.13821
C          C       0.16982   0.53774   0.51161   0.03017
C          C       0.46140   0.85447   0.12120  -0.08458
C          C       0.16143   0.41435   0.60485  -0.13385
C          C       0.16747   0.58537   0.41532  -0.08360
C          C       0.20622   0.09369   0.48425  -0.13834
C          C       0.45592   0.81040   0.07060  -0.08874
C          C       0.11045   0.36705   0.40680  -0.03546
C          C       0.50442   0.26803   0.69393  -0.08836
C          C       0.29213   0.61308   0.62948  -0.24849
C          C       0.41550   0.30630   0.71208  -0.14147
C          C       0.19547   0.56112   0.61188  -0.03666
C          C       0.18196   0.63302   0.46509  -0.08514
C          C       0.30003   0.60288   0.92663  -0.24337
C          C       0.10972   0.80033   0.40972  -0.13854
C          C       0.33262   0.63552   0.08245  -0.13141
C          C       0.33674   0.65729   0.13643  -0.08902
O          O       0.91663   0.21891   0.39968  -0.60140
O          O       0.89922   0.21178   0.19267  -0.73376
O          O       0.60013   0.82162   0.78123  -0.73960
O          O       0.72488   0.71767   0.84415  -0.69426
O          O       0.80671   0.06078   0.32248  -0.63302
O          O       0.68736   0.20219   0.18230  -0.67082
O          O       0.78681   0.04399   0.23202  -0.63617
O          O       0.94409   0.85809   0.71201  -0.66905
O          O       0.70639   0.22627   0.38795  -0.73028
O          O       0.56882   0.30650   0.29977  -0.70312
O          O       0.76910   0.32929   0.29130  -0.72121
O          O       0.88726   0.67285   0.81475  -0.70771
O          O       0.60077   0.43770   0.22170  -0.66169
O          O       0.74265   0.88184   0.69824  -0.71041
O          O       0.93195   0.70477   0.70556  -0.69288
O          O       0.55000   0.30942   0.08577  -0.61564
O          O       0.43745   0.86236   0.73336  -0.65943
O          O       0.73763   0.34000   0.14560  -0.73093
O          O       0.72454   0.71700   0.68738  -0.69476
O          O       0.81198   0.47462   0.25431  -0.69632
O          O       0.08337   0.78109   0.60032  -0.60137
O          O       0.10078   0.78822   0.80733  -0.73361
O          O       0.39985   0.17838   0.21877  -0.73944
O          O       0.27511   0.28232   0.15586  -0.69424
O          O       0.19328   0.93922   0.67751  -0.63291
O          O       0.31264   0.79781   0.81769  -0.67080
O          O       0.21320   0.95601   0.76798  -0.63626
O          O       0.05592   0.14202   0.28818  -0.66906
O          O       0.29360   0.77373   0.61205  -0.73045
O          O       0.43117   0.69350   0.70023  -0.70313
O          O       0.23089   0.67071   0.70870  -0.72120
O          O       0.11273   0.32715   0.18525  -0.70789
O          O       0.39923   0.56230   0.77829  -0.66173
O          O       0.25730   0.11815   0.30176  -0.71027
O          O       0.06806   0.29526   0.29444  -0.69278
O          O       0.45000   0.69058   0.91423  -0.61572
O          O       0.56254   0.13764   0.26664  -0.65975
O          O       0.26236   0.66001   0.85440  -0.73082
O          O       0.27546   0.28301   0.31262  -0.69474
O          O       0.18801   0.52539   0.74574  -0.69614

