data_crystal

_audit_creation_method 'AiiDA-DDEC plugin'

_cell_length_a        13.52715
_cell_length_b        13.61933
_cell_length_c        24.77179

_cell_angle_alpha     90.00000
_cell_angle_beta     90.00000
_cell_angle_gamma     104.09781

_symmetry_space_group_name_Hall 'P 1'
_symmetry_space_group_name_H-M  'P 1'

loop_
_symmetry_equiv_pos_as_xyz
 'x,y,z'

loop_
_atom_site_label
_atom_site_type_symbol
_atom_site_fract_x
_atom_site_fract_y
_atom_site_fract_z
_atom_site_charge
Cu         Cu      0.46041   0.28593   0.75508   0.24083
Cu         Cu      0.43376   0.02485   0.79308   0.22835
Cu         Cu      0.53960   0.21407   0.25508   0.24069
Cu         Cu      0.56624   0.47515   0.29308   0.22839
Cu         Cu      0.53960   0.71407   0.24492   0.24061
Cu         Cu      0.56624   0.97515   0.20693   0.22833
Cu         Cu      0.46041   0.78593   0.74493   0.24068
Cu         Cu      0.43376   0.52485   0.70693   0.22846
H          H       0.69651   0.25451   0.63624   0.11014
H          H       0.69677   0.38492   0.64132   0.09909
H          H       0.80702   0.35284   0.56308   0.08530
H          H       0.69936   0.26984   0.53436   0.07272
H          H       0.61030   0.41542   0.53324   0.07508
H          H       0.72344   0.49692   0.55519   0.08901
H          H       0.70804   0.37250   0.45045   0.08961
H          H       0.80998   0.47300   0.46939   0.08657
H          H       0.68392   0.58967   0.46660   0.11335
H          H       0.70863   0.53965   0.40326   0.09225
H          H       0.56455   0.08977   0.56077   0.11546
H          H       0.51675   0.96358   0.58768   0.12915
H          H       0.43252   0.02809   0.55463   0.11863
H          H       0.47626   0.28967   0.49761   0.11278
H          H       0.42213   0.16348   0.47518   0.12369
H          H       0.55749   0.20948   0.48014   0.10020
H          H       0.24400   0.08290   0.84398   0.10607
H          H       0.27921   0.21616   0.83596   0.11189
H          H       0.09059   0.21631   0.83913   0.08115
H          H       0.13581   0.17884   0.90030   0.08553
H          H       0.05951   0.00081   0.88426   0.08466
H          H       0.03402   0.02124   0.81641   0.07286
H          H       0.87744   0.99153   0.87760   0.08713
H          H       0.93194   0.10676   0.91033   0.09568
H          H       0.93621   0.19689   0.81901   0.10127
H          H       0.81108   0.13762   0.84096   0.12160
H          H       0.03178   0.19648   0.71443   0.11119
H          H       0.03790   0.28825   0.66199   0.13305
H          H       0.02476   0.32296   0.73069   0.12279
H          H       0.79324   0.85678   0.71994   0.12332
H          H       0.67348   0.76648   0.72930   0.13469
H          H       0.68885   0.85052   0.67314   0.12701
H          H       0.30350   0.24549   0.13624   0.10999
H          H       0.30324   0.11508   0.14132   0.09909
H          H       0.19298   0.14716   0.06308   0.08510
H          H       0.30064   0.23016   0.03436   0.07275
H          H       0.38971   0.08458   0.03324   0.07516
H          H       0.27656   0.00308   0.05518   0.08896
H          H       0.29197   0.12750   0.95045   0.08962
H          H       0.19002   0.02700   0.96939   0.08648
H          H       0.31609   0.91032   0.96660   0.11361
H          H       0.29138   0.96035   0.90326   0.09222
H          H       0.43546   0.41023   0.06076   0.11529
H          H       0.48326   0.53641   0.08768   0.12903
H          H       0.56749   0.47190   0.05463   0.11880
H          H       0.52374   0.21033   0.99761   0.11294
H          H       0.57787   0.33652   0.97518   0.12379
H          H       0.44252   0.29052   0.98014   0.10009
H          H       0.75600   0.41709   0.34398   0.10599
H          H       0.72079   0.28383   0.33596   0.11180
H          H       0.90941   0.28369   0.33913   0.08131
H          H       0.86420   0.32116   0.40030   0.08550
H          H       0.94050   0.49918   0.38426   0.08453
H          H       0.96598   0.47876   0.31641   0.07293
H          H       0.12256   0.50847   0.37760   0.08714
H          H       0.06806   0.39324   0.41033   0.09563
H          H       0.06380   0.30311   0.31901   0.10128
H          H       0.18893   0.36238   0.34096   0.12180
H          H       0.96823   0.30352   0.21443   0.11116
H          H       0.96210   0.21175   0.16199   0.13315
H          H       0.97525   0.17704   0.23069   0.12285
H          H       0.20676   0.64321   0.21994   0.12315
H          H       0.32652   0.73352   0.22930   0.13467
H          H       0.31116   0.64948   0.17314   0.12717
H          H       0.30350   0.74548   0.36376   0.10993
H          H       0.30324   0.61508   0.35868   0.09912
H          H       0.19298   0.64716   0.43692   0.08508
H          H       0.30065   0.73016   0.46564   0.07279
H          H       0.38971   0.58458   0.46676   0.07518
H          H       0.27656   0.50308   0.44482   0.08900
H          H       0.29197   0.62749   0.54956   0.08967
H          H       0.19002   0.52700   0.53062   0.08646
H          H       0.31608   0.41033   0.53341   0.11344
H          H       0.29138   0.46035   0.59674   0.09234
H          H       0.43546   0.91023   0.43924   0.11531
H          H       0.48325   0.03642   0.41232   0.12898
H          H       0.56749   0.97190   0.44537   0.11886
H          H       0.52374   0.71033   0.50239   0.11289
H          H       0.57787   0.83652   0.52483   0.12374
H          H       0.44252   0.79051   0.51987   0.10001
H          H       0.75600   0.91709   0.15602   0.10586
H          H       0.72080   0.78383   0.16404   0.11177
H          H       0.90941   0.78369   0.16087   0.08134
H          H       0.86420   0.82116   0.09970   0.08543
H          H       0.94050  -0.00082   0.11574   0.08447
H          H       0.96598   0.97876   0.18359   0.07298
H          H       0.12256   0.00847   0.12240   0.08712
H          H       0.06806   0.89324   0.08967   0.09563
H          H       0.06380   0.80310   0.18099   0.10130
H          H       0.18893   0.86238   0.15904   0.12186
H          H       0.96823   0.80352   0.28557   0.11103
H          H       0.96210   0.71175   0.33801   0.13320
H          H       0.97525   0.67704   0.26931   0.12283
H          H       0.20676   0.14322   0.28006   0.12315
H          H       0.32652   0.23352   0.27070   0.13464
H          H       0.31116   0.14948   0.32686   0.12717
H          H       0.69651   0.75451   0.86376   0.11012
H          H       0.69677   0.88492   0.85868   0.09899
H          H       0.80702   0.85284   0.93692   0.08534
H          H       0.69936   0.76983   0.96564   0.07287
H          H       0.61030   0.91542   0.96676   0.07503
H          H       0.72344   0.99691   0.94482   0.08885
H          H       0.70804   0.87250   0.04956   0.08972
H          H       0.80998   0.97300   0.03061   0.08660
H          H       0.68392   0.08967   0.03340   0.11338
H          H       0.70863   0.03965   0.09674   0.09235
H          H       0.56455   0.58977   0.93924   0.11546
H          H       0.51675   0.46358   0.91232   0.12915
H          H       0.43252   0.52809   0.94537   0.11866
H          H       0.47627   0.78967   0.00239   0.11275
H          H       0.42214   0.66348   0.02483   0.12367
H          H       0.55749   0.70948   0.01986   0.10024
H          H       0.24400   0.58290   0.65602   0.10606
H          H       0.27921   0.71616   0.66404   0.11180
H          H       0.09059   0.71631   0.66087   0.08113
H          H       0.13581   0.67884   0.59970   0.08542
H          H       0.05951   0.50082   0.61574   0.08458
H          H       0.03403   0.52123   0.68359   0.07302
H          H       0.87744   0.49153   0.62240   0.08702
H          H       0.93194   0.60676   0.58967   0.09552
H          H       0.93621   0.69689   0.68099   0.10130
H          H       0.81108   0.63762   0.65904   0.12151
H          H       0.03178   0.69648   0.78557   0.11114
H          H       0.03790   0.78825   0.83801   0.13316
H          H       0.02476   0.82296   0.76931   0.12263
H          H       0.79324   0.35678   0.78006   0.12342
H          H       0.67348   0.26648   0.77070   0.13472
H          H       0.68884   0.35052   0.82686   0.12731
C          C       0.49679   0.17697   0.64971   0.10922
C          C       0.67576   0.31768   0.61550  -0.18171
C          C       0.72345   0.33827   0.55942  -0.15155
C          C       0.69359   0.42753   0.53167  -0.16282
C          C       0.72654   0.44479   0.47255  -0.14528
C          C       0.67627   0.51920   0.44354  -0.17841
C          C       0.52552   0.36571   0.39721   0.11604
C          C       0.50022   0.03750   0.58061  -0.29570
C          C       0.48577   0.23022   0.46983  -0.30174
C          C       0.23344   0.25346   0.73418   0.12209
C          C       0.21719   0.14839   0.83015  -0.18025
C          C       0.11860   0.15527   0.85807  -0.14653
C          C       0.03661   0.05499   0.85692  -0.16541
C          C       0.92975   0.06630   0.87164  -0.15234
C          C       0.88446   0.12371   0.82885  -0.17400
C          C       0.72864   0.00715   0.77023   0.12880
C          C       0.05956   0.27651   0.70377  -0.29276
C          C       0.71044   0.84341   0.71560  -0.29758
C          C       0.50322   0.32303   0.14971   0.10905
C          C       0.32425   0.18232   0.11550  -0.18187
C          C       0.27655   0.16173   0.05942  -0.15157
C          C       0.30641   0.07247   0.03167  -0.16250
C          C       0.27346   0.05521   0.97255  -0.14555
C          C       0.32374   0.98080   0.94354  -0.17866
C          C       0.47449   0.13428   0.89721   0.11599
C          C       0.49978   0.46250   0.08061  -0.29555
C          C       0.51423   0.26978   0.96983  -0.30196
C          C       0.76656   0.24654   0.23418   0.12207
C          C       0.78282   0.35161   0.33014  -0.18016
C          C       0.88140   0.34473   0.35806  -0.14662
C          C       0.96340   0.44501   0.35692  -0.16549
C          C       0.07026   0.43370   0.37164  -0.15229
C          C       0.11555   0.37628   0.32885  -0.17407
C          C       0.27137   0.49285   0.27023   0.12874
C          C       0.94045   0.22349   0.20376  -0.29279
C          C       0.28957   0.65658   0.21560  -0.29789
C          C       0.50322   0.82303   0.35029   0.10912
C          C       0.32425   0.68231   0.38450  -0.18195
C          C       0.27655   0.66173   0.44058  -0.15166
C          C       0.30641   0.57247   0.46833  -0.16260
C          C       0.27346   0.55521   0.52745  -0.14555
C          C       0.32374   0.48080   0.55646  -0.17850
C          C       0.47449   0.63428   0.60279   0.11598
C          C       0.49978   0.96249   0.41939  -0.29558
C          C       0.51424   0.76978   0.53017  -0.30191
C          C       0.76656   0.74654   0.26582   0.12214
C          C       0.78282   0.85161   0.16986  -0.18010
C          C       0.88141   0.84473   0.14194  -0.14656
C          C       0.96340   0.94501   0.14308  -0.16556
C          C       0.07026   0.93370   0.12837  -0.15230
C          C       0.11555   0.87628   0.17115  -0.17407
C          C       0.27137   0.99284   0.22977   0.12859
C          C       0.94045   0.72348   0.29624  -0.29259
C          C       0.28957   0.15659   0.28440  -0.29770
C          C       0.49679   0.67697   0.85030   0.10915
C          C       0.67576   0.81768   0.88450  -0.18182
C          C       0.72345   0.83827   0.94059  -0.15151
C          C       0.69359   0.92753   0.96833  -0.16262
C          C       0.72654   0.94479   0.02745  -0.14538
C          C       0.67627   0.01920   0.05646  -0.17853
C          C       0.52552   0.86571   0.10279   0.11604
C          C       0.50022   0.53750   0.91939  -0.29545
C          C       0.48577   0.73022   0.03017  -0.30173
C          C       0.23344   0.75346   0.76582   0.12209
C          C       0.21719   0.64839   0.66986  -0.18024
C          C       0.11860   0.65527   0.64194  -0.14654
C          C       0.03661   0.55499   0.64308  -0.16533
C          C       0.92975   0.56630   0.62837  -0.15230
C          C       0.88446   0.62371   0.67115  -0.17402
C          C       0.72864   0.50715   0.72977   0.12577
C          C       0.05956   0.77651   0.79624  -0.29271
C          C       0.71043   0.34341   0.78440  -0.30082
S          S       0.53239   0.28444   0.61101  -0.05322
S          S       0.53578   0.47375   0.43496  -0.06156
S          S       0.20346   0.12884   0.75630  -0.04902
S          S       0.86022   0.05457   0.76437  -0.03395
S          S       0.46761   0.21556   0.11101  -0.05284
S          S       0.46422   0.02625   0.93496  -0.06119
S          S       0.79654   0.37116   0.25630  -0.04906
S          S       0.13979   0.44543   0.26437  -0.03405
S          S       0.46761   0.71556   0.38899  -0.05272
S          S       0.46422   0.52624   0.56504  -0.06120
S          S       0.79654   0.87116   0.24371  -0.04903
S          S       0.13979   0.94543   0.23563  -0.03403
S          S       0.53239   0.78444   0.88900  -0.05318
S          S       0.53578   0.97375   0.06504  -0.06162
S          S       0.20346   0.62884   0.74371  -0.04880
S          S       0.86022   0.55457   0.73563  -0.03360
N          N       0.46935   0.17263   0.70225  -0.20873
N          N       0.43787   0.07392   0.71564  -0.01539
N          N       0.44426   0.01350   0.67456  -0.15078
N          N       0.48318   0.07772   0.63275   0.11777
N          N       0.54418   0.36023   0.34407  -0.19780
N          N       0.52330   0.26149   0.33007  -0.02709
N          N       0.48928   0.20084   0.37242  -0.21236
N          N       0.48624   0.26696   0.41523   0.07431
N          N       0.32752   0.31566   0.73194  -0.19096
N          N       0.32015   0.40175   0.70708  -0.01146
N          N       0.22437   0.39812   0.69202  -0.18829
N          N       0.16899   0.30359   0.70862   0.10340
N          N       0.66348   0.05103   0.79501  -0.27927
N          N       0.56964   0.98729   0.78928  -0.03683
N          N       0.57439   0.90597   0.75951  -0.13081
N          N       0.67683   0.91641   0.74879   0.12006
N          N       0.53066   0.32737   0.20225  -0.20864
N          N       0.56213   0.42608   0.21564  -0.01535
N          N       0.55574   0.48650   0.17456  -0.15095
N          N       0.51682   0.42227   0.13275   0.11785
N          N       0.45582   0.13977   0.84407  -0.19778
N          N       0.47671   0.23850   0.83007  -0.02717
N          N       0.51072   0.29916   0.87242  -0.21249
N          N       0.51376   0.23304   0.91523   0.07453
N          N       0.67248   0.18434   0.23194  -0.19126
N          N       0.67986   0.09825   0.20708  -0.01146
N          N       0.77563   0.10188   0.19202  -0.18809
N          N       0.83102   0.19641   0.20861   0.10355
N          N       0.33652   0.44897   0.29501  -0.27922
N          N       0.43037   0.51271   0.28928  -0.03655
N          N       0.42562   0.59403   0.25951  -0.13082
N          N       0.32318   0.58359   0.24879   0.12011
N          N       0.53066   0.82737   0.29775  -0.20859
N          N       0.56213   0.92608   0.28436  -0.01535
N          N       0.55574   0.98650   0.32544  -0.15105
N          N       0.51683   0.92227   0.36725   0.11783
N          N       0.45582   0.63977   0.65593  -0.19760
N          N       0.47671   0.73850   0.66994  -0.02717
N          N       0.51073   0.79916   0.62758  -0.21261
N          N       0.51376   0.73304   0.58477   0.07450
N          N       0.67248   0.68434   0.26806  -0.19141
N          N       0.67986   0.59825   0.29292  -0.01137
N          N       0.77564   0.60188   0.30798  -0.18793
N          N       0.83102   0.69641   0.29139   0.10341
N          N       0.33653   0.94897   0.20499  -0.27902
N          N       0.43037   0.01271   0.21072  -0.03677
N          N       0.42562   0.09403   0.24049  -0.13082
N          N       0.32318   0.08359   0.25121   0.12007
N          N       0.46935   0.67263   0.79775  -0.20870
N          N       0.43787   0.57392   0.78436  -0.01579
N          N       0.44426   0.51350   0.82544  -0.15061
N          N       0.48318   0.57772   0.86725   0.11786
N          N       0.54418   0.86023   0.15593  -0.19792
N          N       0.52330   0.76149   0.16993  -0.02683
N          N       0.48928   0.70084   0.12758  -0.21227
N          N       0.48624   0.76696   0.08477   0.07412
N          N       0.32753   0.81566   0.76806  -0.19113
N          N       0.32015   0.90175   0.79292  -0.01136
N          N       0.22437   0.89812   0.80798  -0.18821
N          N       0.16899   0.80359   0.79139   0.10344
N          N       0.66348   0.55103   0.70499  -0.27946
N          N       0.56964   0.48729   0.71072  -0.03694
N          N       0.57439   0.40597   0.74049  -0.13356
N          N       0.67683   0.41641   0.75122   0.12831

