data_crystal

_audit_creation_method 'AiiDA-DDEC plugin'

_cell_length_a         9.96795
_cell_length_b        16.41258
_cell_length_c        24.26975

_cell_angle_alpha     102.45193
_cell_angle_beta     89.97931
_cell_angle_gamma     107.67589

_symmetry_space_group_name_Hall 'P 1'
_symmetry_space_group_name_H-M  'P 1'

loop_
_symmetry_equiv_pos_as_xyz
 'x,y,z'

loop_
_atom_site_label
_atom_site_type_symbol
_atom_site_fract_x
_atom_site_fract_y
_atom_site_fract_z
_atom_site_charge
Mn         Mn      0.28628   0.74741   0.59572   0.87730
Mn         Mn      0.25502   0.57259   0.66329   0.80875
Mn         Mn      0.53864   0.25230   0.90415   0.87930
Mn         Mn      0.68205   0.42722   0.83697   0.80779
Mn         Mn      0.71296   0.25288   0.40430   0.87736
Mn         Mn      0.74505   0.42746   0.33683   0.80825
Mn         Mn      0.46177   0.74774   0.09590   0.87955
Mn         Mn      0.31793   0.57286   0.16302   0.80826
H          H       0.67238   0.02074   0.52932   0.28729
H          H       0.95589   0.23415   0.55741   0.28801
H          H       0.11827   0.58069   0.49452   0.09628
H          H       0.18235   0.51872   0.39843   0.10053
H          H       0.50137   0.75403   0.40356   0.09809
H          H       0.70565   0.11719   0.60613   0.08822
H          H       0.71958   0.22930   0.69148   0.10758
H          H       0.34123   0.06583   0.74460   0.11527
H          H       0.32788   0.94737   0.65899   0.11850
H          H       0.15599   0.64832   0.78522   0.10169
H          H       0.96133   0.59571   0.84691   0.09736
H          H       0.79783   0.36328   0.72513   0.10774
H          H       0.17577   0.21926   0.52242   0.09835
H          H       0.33990   0.21401   0.44555   0.11569
H          H       0.40838   0.48631   0.45045   0.11492
H          H       0.23983   0.49285   0.52679   0.10778
H          H       0.65152   0.97907   0.97046   0.28635
H          H       0.72239   0.76553   0.94263   0.28799
H          H       0.53766   0.41901   0.00513   0.09737
H          H       0.66328   0.48118   0.10126   0.10038
H          H       0.74696   0.24593   0.09651   0.09760
H          H       0.58764   0.88273   0.89406   0.08784
H          H       0.48995   0.77055   0.80873   0.10783
H          H       0.27529   0.93394   0.75540   0.11546
H          H       0.37958   0.05238   0.84114   0.11906
H          H       0.50737   0.35143   0.71480   0.10153
H          H       0.36592   0.40431   0.65306   0.09797
H          H       0.43470   0.63660   0.77499   0.10708
H          H       0.95551   0.78048   0.97749   0.09727
H          H       0.12506   0.78686   0.05448   0.11532
H          H       0.92360   0.51429   0.04994   0.11514
H          H       0.74850   0.50666   0.97353   0.10872
H          H       0.32768   0.97929   0.47076   0.28743
H          H       0.04430   0.76573   0.44274   0.28787
H          H       0.88173   0.41940   0.50554   0.09652
H          H       0.81772   0.48120   0.60168   0.10033
H          H       0.49867   0.24583   0.59640   0.09829
H          H       0.29435   0.88275   0.39389   0.08856
H          H       0.28035   0.77070   0.30857   0.10785
H          H       0.65867   0.93420   0.25539   0.11509
H          H       0.67219   0.05259   0.34102   0.11853
H          H       0.84382   0.35178   0.21484   0.10150
H          H       0.03843   0.40421   0.15307   0.09748
H          H       0.20198   0.63667   0.27493   0.10759
H          H       0.82433   0.78084   0.47748   0.09860
H          H       0.66018   0.78612   0.55438   0.11554
H          H       0.59182   0.51389   0.54967   0.11497
H          H       0.76017   0.50716   0.47324   0.10798
H          H       0.34857   0.02096   0.02954   0.28602
H          H       0.27783   0.23452   0.05731   0.28845
H          H       0.46209   0.58093   0.99482   0.09795
H          H       0.33633   0.51877   0.89867   0.10079
H          H       0.25300   0.75422   0.90359   0.09755
H          H       0.41220   0.11734   0.10600   0.08786
H          H       0.50995   0.22946   0.19137   0.10740
H          H       0.72467   0.06603   0.24463   0.11573
H          H       0.62025   0.94757   0.15885   0.12108
H          H       0.49258   0.64854   0.28518   0.10120
H          H       0.63417   0.59578   0.34693   0.09800
H          H       0.56548   0.36345   0.22501   0.10697
H          H       0.04426   0.21942   0.02254   0.09759
H          H       0.87484   0.21292   0.94545   0.11540
H          H       0.07617   0.48548   0.95001   0.11460
H          H       0.25112   0.49317   0.02646   0.10900
C          C       0.20374   0.61918   0.47391   0.02185
C          C       0.24080   0.58533   0.42088   0.02316
C          C       0.41540   0.71390   0.42326   0.01953
C          C       0.37972   0.75009   0.47682   0.06597
C          C       0.45293   0.83855   0.50775   0.21383
C          C       0.50643   0.95489   0.57548   0.28919
C          C       0.51439   0.02307   0.62578  -0.00204
C          C       0.62413   0.10383   0.63577  -0.13240
C          C       0.63264   0.16837   0.68441  -0.09139
C          C       0.53140   0.15422   0.72452  -0.03033
C          C       0.42014   0.07507   0.71377  -0.09279
C          C       0.41136   0.00982   0.66542  -0.10783
C          C       0.54493   0.22060   0.77908   0.58668
C          C       0.07594   0.58461   0.77189   0.03799
C          C       0.96774   0.55595   0.80555   0.01370
C          C       0.87895   0.42645   0.73868   0.01996
C          C       0.99094   0.45336   0.70591   0.08723
C          C       0.01208   0.39768   0.65367   0.23546
C          C       0.10803   0.36161   0.57674   0.28524
C          C       0.19722   0.35697   0.52955   0.00158
C          C       0.22271   0.27728   0.50576  -0.13961
C          C       0.31573   0.27409   0.46342  -0.09086
C          C       0.38576   0.35012   0.44453  -0.03243
C          C       0.35525   0.42841   0.46628  -0.07932
C          C       0.26177   0.43207   0.50870  -0.09165
C          C       0.50242   0.34757   0.40628   0.57663
C          C       0.58471   0.38066   0.02583   0.02199
C          C       0.65533   0.41457   0.07889   0.02323
C          C       0.70143   0.28606   0.07668   0.02049
C          C       0.63003   0.24987   0.02305   0.06487
C          C       0.61477   0.16140   0.99215   0.21613
C          C       0.55141   0.04503   0.92447   0.29023
C          C       0.49096   0.97688   0.87423  -0.00397
C          C       0.51992   0.89613   0.86431  -0.13105
C          C       0.46409   0.83152   0.81572  -0.09115
C          C       0.37733   0.84571   0.77554  -0.03187
C          C       0.34496   0.92478   0.78624  -0.09192
C          C       0.40111   0.99006   0.83460  -0.10894
C          C       0.32522   0.77952   0.72093   0.58596
C          C       0.49103   0.41512   0.72817   0.03938
C          C       0.41169   0.44388   0.69451   0.01262
C          C       0.45245   0.57334   0.76150   0.02076
C          C       0.53744   0.54635   0.79423   0.08707
C          C       0.61434   0.60193   0.84647   0.23475
C          C       0.74639   0.63787   0.92335   0.28457
C          C       0.84039   0.64266   0.97051   0.00342
C          C       0.94493   0.72265   0.99429  -0.14034
C          C       0.04134   0.72645   0.03670  -0.09051
C          C       0.03629   0.65052   0.05554  -0.03236
C          C       0.92777   0.57202   0.03401  -0.07787
C          C       0.83041   0.56781   0.99156  -0.09191
C          C       0.15659   0.65284   0.09306   0.57666
C          C       0.79608   0.38093   0.52608   0.02123
C          C       0.75914   0.41466   0.57916   0.02353
C          C       0.58452   0.28607   0.57670   0.01865
C          C       0.62007   0.24999   0.52309   0.06801
C          C       0.54702   0.16150   0.49217   0.21349
C          C       0.49348   0.04512   0.42449   0.28900
C          C       0.48552   0.97693   0.37421  -0.00203
C          C       0.37584   0.89614   0.36424  -0.13282
C          C       0.36733   0.83162   0.31560  -0.09170
C          C       0.46864   0.84577   0.27549  -0.03044
C          C       0.57981   0.92495   0.28624  -0.09294
C          C       0.58864   0.99018   0.33460  -0.10721
C          C       0.45540   0.77932   0.22098   0.58586
C          C       0.92396   0.41543   0.22814   0.03857
C          C       0.03217   0.44399   0.19445   0.01362
C          C       0.12092   0.57349   0.26134   0.01973
C          C       0.00897   0.54663   0.29412   0.08719
C          C       0.98789   0.60234   0.34634   0.23546
C          C       0.89195   0.63843   0.42324   0.28532
C          C       0.80271   0.64306   0.47040   0.00163
C          C       0.77746   0.72284   0.49418  -0.14015
C          C       0.68450   0.72608   0.53654  -0.09137
C          C       0.61428   0.65012   0.55545  -0.03202
C          C       0.64491   0.57178   0.53381  -0.07896
C          C       0.73831   0.56801   0.49134  -0.09180
C          C       0.49761   0.65282   0.59376   0.57520
C          C       0.41517   0.61930   0.97410   0.02088
C          C       0.34444   0.58542   0.92104   0.02464
C          C       0.29852   0.71401   0.92335   0.02054
C          C       0.37009   0.75016   0.97695   0.06497
C          C       0.38537   0.83862   0.00790   0.21664
C          C       0.44881   0.95505   0.07551   0.28971
C          C       0.50910   0.02319   0.12579  -0.00396
C          C       0.47999   0.10391   0.13572  -0.13118
C          C       0.53591   0.16852   0.18431  -0.09162
C          C       0.62263   0.15434   0.22450  -0.03056
C          C       0.65509   0.07527   0.21378  -0.09245
C          C       0.59883   0.00996   0.16544  -0.11003
C          C       0.67442   0.22044   0.27919   0.58437
C          C       0.50886   0.58483   0.27185   0.03980
C          C       0.58826   0.55611   0.30551   0.01280
C          C       0.54757   0.42666   0.23853   0.02161
C          C       0.46253   0.45361   0.20579   0.08696
C          C       0.38567   0.39805   0.15353   0.23429
C          C       0.25351   0.36207   0.07666   0.28539
C          C       0.15943   0.35720   0.02950   0.00322
C          C       0.05487   0.27723   0.00573  -0.14004
C          C       0.95852   0.27334   0.96325  -0.09156
C          C       0.96367   0.34922   0.94433  -0.03116
C          C       0.07200   0.42775   0.96593  -0.07859
C          C       0.16930   0.43201   0.00842  -0.09224
C          C       0.84362   0.34691   0.90671   0.57637
N          N       0.27283   0.70218   0.50376  -0.31091
N          N       0.34876   0.63198   0.39457  -0.24962
N          N       0.41334   0.87310   0.56017  -0.42371
N          N       0.56433   0.89363   0.48978  -0.25623
N          N       0.59626   0.96542   0.53326  -0.15271
N          N       0.09003   0.53482   0.72119  -0.26351
N          N       0.86490   0.47687   0.78884  -0.20949
N          N       0.11830   0.42968   0.62031  -0.38869
N          N       0.93648   0.31337   0.63353  -0.23550
N          N      -0.00037   0.29238   0.58524  -0.15830
N          N       0.57120   0.29771   0.99602  -0.31075
N          N       0.71648   0.36799   0.10531  -0.25030
N          N       0.54036   0.12687   0.93980  -0.42623
N          N       0.67119   0.10631   0.01002  -0.25618
N          N       0.63094   0.03448   0.96658  -0.15121
N          N       0.55470   0.46481   0.77891  -0.26233
N          N       0.38782   0.52288   0.71140  -0.20725
N          N       0.68835   0.56981   0.87980  -0.38675
N          N       0.62337   0.68629   0.86659  -0.23573
N          N       0.70727   0.70712   0.91488  -0.15804
N          N       0.72681   0.29801   0.49616  -0.31113
N          N       0.65113   0.36797   0.60542  -0.24945
N          N       0.58652   0.12693   0.43974  -0.42322
N          N       0.43588   0.10637   0.51024  -0.25639
N          N       0.40392   0.03453   0.46679  -0.15283
N          N       0.90992   0.46517   0.27887  -0.26402
N          N       0.13503   0.52309   0.21117  -0.20974
N          N       0.88168   0.57034   0.37969  -0.38851
N          N       0.06362   0.68663   0.36650  -0.23595
N          N       0.00046   0.70757   0.41479  -0.15785
N          N       0.42896   0.70228   0.00390  -0.31020
N          N       0.28340   0.63209   0.89467  -0.25104
N          N       0.45974   0.87317   0.06025  -0.42620
N          N       0.32892   0.89368   0.99000  -0.25675
N          N       0.36907   0.96552   0.03344  -0.15055
N          N       0.44520   0.53514   0.22111  -0.26303
N          N       0.61214   0.47712   0.28864  -0.20717
N          N       0.31154   0.43013   0.12022  -0.38730
N          N       0.37677   0.31371   0.13338  -0.23451
N          N       0.29263   0.29279   0.08513  -0.15917
Cl         Cl      0.08949   0.61983   0.60210  -0.51122
Cl         Cl      0.46919   0.38005   0.89835  -0.51227
Cl         Cl      0.90991   0.37989   0.39799  -0.51021
Cl         Cl      0.53101   0.62009   0.10172  -0.51163
O          O       0.47588   0.19327   0.81972  -0.54567
O          O       0.62518   0.29820   0.78112  -0.53512
O          O       0.52680   0.27353   0.39194  -0.55515
O          O       0.57417   0.41749   0.39243  -0.52550
O          O       0.28556   0.80746   0.68019  -0.54461
O          O       0.32644   0.70172   0.71899  -0.53358
O          O       0.25415   0.72712   0.10801  -0.55461
O          O       0.16014   0.58229   0.10556  -0.52703
O          O       0.52506   0.80641   0.18039  -0.54629
O          O       0.37457   0.70183   0.21890  -0.53431
O          O       0.47310   0.72682   0.60812  -0.55395
O          O       0.42598   0.58290   0.60764  -0.52590
O          O       0.71382   0.19234   0.31989  -0.54364
O          O       0.67348   0.29833   0.28120  -0.53362
O          O       0.74597   0.27265   0.89184  -0.55390
O          O       0.84013   0.41749   0.89425  -0.52732

