data_crystal

_audit_creation_method 'AiiDA-DDEC plugin'

_cell_length_a        18.32479
_cell_length_b        18.44205
_cell_length_c        18.55643

_cell_angle_alpha     105.72695
_cell_angle_beta     106.94329
_cell_angle_gamma     106.14953

_symmetry_space_group_name_Hall 'P 1'
_symmetry_space_group_name_H-M  'P 1'

loop_
_symmetry_equiv_pos_as_xyz
 'x,y,z'

loop_
_atom_site_label
_atom_site_type_symbol
_atom_site_fract_x
_atom_site_fract_y
_atom_site_fract_z
_atom_site_charge
Ni         Ni      0.73706   0.81622   0.67113   0.91693
Ni         Ni      0.68563   0.75471   0.81953   0.94849
Ni         Ni      0.81865   0.67979   0.75446   0.94280
Ni         Ni      0.24179   0.17617   0.32701   0.94995
Ni         Ni      0.32602   0.25336   0.16855   0.92316
Ni         Ni      0.18759   0.32489   0.25663   0.97830
H          H       0.52870   0.24519   0.26492   0.10909
H          H       0.63930   0.18856   0.28472   0.11219
H          H       0.59563   0.14321   0.48691   0.10423
H          H       0.48059   0.19015   0.46071   0.12291
H          H       0.62813   0.04845   0.45434   0.11384
H          H       0.83317   0.94008   0.47910   0.12243
H          H       0.83232   0.86030   0.56715   0.08969
H          H       0.26242   0.54527   0.23307   0.11037
H          H       0.29006   0.65620   0.17911   0.10977
H          H       0.48462   0.59392   0.12970   0.10103
H          H       0.45182   0.48032   0.17619   0.11366
H          H       0.46156   0.63876   0.04211   0.11489
H          H       0.49121   0.84677   0.94043   0.12020
H          H       0.58064   0.84550   0.86226   0.09450
H          H       0.23207   0.25619   0.54534   0.10963
H          H       0.17950   0.28623   0.65617   0.10783
H          H       0.13841   0.48541   0.59728   0.10064
H          H       0.18673   0.45249   0.48572   0.11714
H          H       0.04581   0.46106   0.63806   0.11425
H          H       0.93605   0.48041   0.83776   0.12178
H          H       0.85828   0.57166   0.83879   0.10030
H          H       0.24099   0.25862   0.95572   0.11009
H          H       0.21137   0.31391   0.84549   0.10911
H          H       0.01647   0.36212   0.90773   0.10268
H          H       0.05152   0.31464   0.02075   0.11809
H          H       0.03756   0.44972   0.86394   0.11442
H          H       0.01525   0.56215   0.66532   0.12039
H          H       0.92747   0.64329   0.66870   0.09213
H          H       0.27001   0.96060   0.24285   0.10855
H          H       0.32285   0.84933   0.21183   0.10967
H          H       0.37041   0.91644   0.02043   0.10222
H          H       0.32491   0.03022   0.05652   0.11466
H          H       0.45870   0.87029   0.04011   0.11338
H          H       0.56270   0.66374   0.01176   0.12079
H          H       0.64164   0.66500   0.92327   0.09724
H          H       0.95807   0.24978   0.26820   0.10829
H          H       0.84554   0.22113   0.31995   0.10878
H          H       0.89326   0.01356   0.35069   0.10140
H          H       0.00792   0.04617   0.30509   0.11812
H          H       0.85746   0.04017   0.44553   0.11487
H          H       0.65356   0.01461   0.55285   0.12255
H          H       0.65637   0.92642   0.63268   0.09660
H          H       0.45865   0.76586   0.74164   0.11196
H          H       0.34405   0.81737   0.71470   0.10900
H          H       0.39086   0.85615   0.51088   0.10184
H          H       0.50700   0.81014   0.54232   0.11936
H          H       0.35136   0.94855   0.53822   0.11679
H          H       0.14597   0.05354   0.51264   0.12287
H          H       0.14932   0.13475   0.42501   0.09861
H          H       0.73533   0.45391   0.75033   0.11280
H          H       0.71112   0.34484   0.80786   0.10847
H          H       0.51900   0.40856   0.86172   0.10023
H          H       0.54838   0.52010   0.81136   0.11861
H          H       0.54667   0.36734   0.95114   0.11519
H          H       0.52486   0.16507   0.06010   0.12691
H          H       0.43422   0.16537   0.13717   0.09874
H          H       0.77172   0.74625   0.45637   0.10760
H          H       0.82299   0.71293   0.34501   0.10876
H          H       0.87739   0.52495   0.41701   0.10272
H          H       0.83231   0.56210   0.53007   0.11584
H          H       0.96298   0.54278   0.36849   0.11357
H          H       0.06527   0.51715   0.16390   0.12194
H          H       0.14641   0.42887   0.16597   0.09678
H          H       0.75765   0.73495   0.04330   0.10949
H          H       0.78752   0.68159   0.15509   0.10841
H          H       0.98713   0.63845   0.09892   0.10153
H          H       0.95149   0.68369   0.98389   0.11805
H          H       0.96118   0.54591   0.13727   0.11558
H          H       0.99179   0.44057   0.34162   0.12182
H          H       0.08353   0.36334   0.34179   0.09571
H          H       0.73495   0.04209   0.75056   0.10704
H          H       0.68182   0.15384   0.78002   0.10944
H          H       0.65065   0.10066   0.98361   0.10252
H          H       0.69751   0.98689   0.94968   0.12115
H          H       0.55614   0.13926   0.95949   0.11409
H          H       0.44662   0.34171   0.98154   0.12617
H          H       0.36768   0.34123   0.07010   0.10299
H          H       0.05123   0.76217   0.75433   0.11671
H          H       0.15032   0.78277   0.68542   0.11665
H          H       0.07728   0.97089   0.63162   0.10770
H          H       0.97888   0.94944   0.69770   0.12253
H          H       0.11755   0.94729   0.54120   0.11602
H          H       0.31776   0.96953   0.43236   0.12369
H          H       0.32043   0.06189   0.35626   0.09606
H          H       0.87345   0.87821   0.80221   0.40260
H          H       0.69572   0.69410   0.69415   0.37852
H          H       0.22693   0.19948   0.20913   0.38627
H          H       0.32166   0.26983   0.28339   0.36105
C          C       0.41839   0.23621   0.34186   0.59439
C          C       0.49465   0.21755   0.35900  -0.03225
C          C       0.54215   0.22026   0.31176  -0.09672
C          C       0.60451   0.18939   0.32329  -0.11872
C          C       0.62274   0.15740   0.38405   0.04065
C          C       0.57924   0.16164   0.43552  -0.13367
C          C       0.51552   0.18951   0.42235  -0.09340
C          C       0.68464   0.11910   0.39525   0.20964
C          C       0.68038   0.06624   0.43756  -0.22564
C          C       0.79410   0.94114   0.51327  -0.18238
C          C       0.79373   0.89557   0.56198   0.08997
C          C       0.32833   0.42837   0.22526   0.59760
C          C       0.35264   0.50296   0.20461  -0.02315
C          C       0.30945   0.55511   0.20808  -0.09815
C          C       0.32529   0.61749   0.17870  -0.12102
C          C       0.38650   0.63110   0.14688   0.03383
C          C       0.43335   0.58203   0.14891  -0.13630
C          C       0.41609   0.51854   0.17613  -0.09869
C          C       0.40193   0.69467   0.11192   0.21098
C          C       0.44569   0.69126   0.06098  -0.22497
C          C       0.52455   0.80637   0.94054  -0.18777
C          C       0.57338   0.80550   0.89550   0.09715
C          C       0.22967   0.32410   0.43264   0.59039
C          C       0.20946   0.35022   0.50636  -0.02422
C          C       0.20993   0.30533   0.55668  -0.09682
C          C       0.18107   0.32214   0.61841  -0.12099
C          C       0.15151   0.38507   0.63230   0.03222
C          C       0.15619   0.43326   0.58504  -0.13685
C          C       0.18421   0.41585   0.52273  -0.09929
C          C       0.11497   0.39927   0.69384   0.21326
C          C       0.06345   0.44327   0.68966  -0.22626
C          C       0.93799   0.51646   0.80024  -0.18326
C          C       0.89303   0.56593   0.80049   0.09752
C          C       0.17745   0.26580   0.07132   0.59362
C          C       0.15048   0.28614   0.99719  -0.02367
C          C       0.19321   0.28330   0.94544  -0.10054
C          C       0.17637   0.31336   0.88382  -0.12019
C          C       0.11456   0.34526   0.87078   0.03454
C          C       0.06798   0.34253   0.91933  -0.13607
C          C       0.08633   0.31461   0.98227  -0.09723
C          C       0.09943   0.38218   0.80886   0.21145
C          C       0.05485   0.43291   0.81254  -0.22772
C          C       0.98059   0.56053   0.70384  -0.18498
C          C       0.93304   0.60733   0.70615   0.09118
C          C       0.27755   0.07976   0.17973   0.59234
C          C       0.29825   0.00561   0.15476  -0.02415
C          C       0.29479   0.95198   0.19603  -0.09971
C          C       0.32341   0.88933   0.17819  -0.11731
C          C       0.35453   0.87694   0.11690   0.03705
C          C       0.35212   0.92737   0.07181  -0.13825
C          C       0.32559   0.99106   0.09102  -0.10031
C          C       0.38937   0.81340   0.10003   0.20963
C          C       0.44018   0.81757   0.05600  -0.22581
C          C       0.56257   0.70402   0.97849  -0.18567
C          C       0.60841   0.70516   0.93054   0.09861
C          C       0.06876   0.17601   0.26784   0.58964
C          C       0.99264   0.15193   0.28657  -0.01955
C          C       0.94432   0.19918   0.28813  -0.09790
C          C       0.88119   0.18297   0.31646  -0.11994
C          C       0.86349   0.11787   0.34279   0.03079
C          C       0.90857   0.06741   0.33571  -0.13712
C          C       0.97242   0.08449   0.30891  -0.10023
C          C       0.80081   0.10299   0.37865   0.21535
C          C       0.80494   0.05752   0.42860  -0.22465
C          C       0.69368   0.98093   0.55261  -0.18173
C          C       0.69544   0.93275   0.59867   0.10037
C          C       0.56738   0.76886   0.66956   0.58663
C          C       0.49146   0.78802   0.64546  -0.02006
C          C       0.44366   0.78746   0.69241  -0.09569
C          C       0.37985   0.81560   0.67715  -0.11840
C          C       0.36161   0.84383   0.61347   0.02931
C          C       0.40666   0.83935   0.56351  -0.13636
C          C       0.47113   0.81255   0.57974  -0.09982
C          C       0.29725   0.87823   0.59874   0.21700
C          C       0.29877   0.92881   0.55410  -0.22293
C          C       0.18400   0.05116   0.47741  -0.18326
C          C       0.18603   0.09767   0.42979   0.10048
C          C       0.67079   0.57103   0.76129   0.58246
C          C       0.64591   0.49600   0.78060  -0.01714
C          C       0.68932   0.44413   0.77655  -0.09872
C          C       0.67548   0.38318   0.80781  -0.12103
C          C       0.61626   0.37120   0.84208   0.02828
C          C       0.56861   0.41952   0.84018  -0.13605
C          C       0.58379   0.48155   0.81084  -0.09864
C          C       0.60464   0.31034   0.88028   0.21710
C          C       0.56310   0.31512   0.93313  -0.22840
C          C       0.49007   0.20412   0.05855  -0.17732
C          C       0.44122   0.20486   0.10338   0.08822
C          C       0.78459   0.68685   0.57770   0.58671
C          C       0.80342   0.65959   0.50349  -0.02916
C          C       0.79754   0.69965   0.44876  -0.09792
C          C       0.82514   0.68073   0.38630  -0.12035
C          C       0.85777   0.61994   0.37564   0.03431
C          C       0.85760   0.57584   0.42690  -0.13684
C          C       0.83161   0.59583   0.49024  -0.09724
C          C       0.89188   0.60315   0.31248   0.21103
C          C       0.94316   0.55893   0.31610  -0.22906
C          C       0.06546   0.48293   0.20326  -0.18266
C          C       0.11235   0.43528   0.20485   0.09478
C          C       0.82400   0.72776   0.92904   0.58326
C          C       0.85011   0.70896   0.00433  -0.01581
C          C       0.80627   0.71147   0.05503  -0.10019
C          C       0.82336   0.68251   0.11759  -0.12020
C          C       0.88652   0.65240   0.13234   0.02900
C          C       0.93442   0.65618   0.08521  -0.13687
C          C       0.91577   0.68279   0.02148  -0.10107
C          C       0.90272   0.61637   0.19466   0.21425
C          C       0.94646   0.56473   0.19014  -0.22778
C          C       0.02627   0.44213   0.30291  -0.18293
C          C       0.07611   0.39758   0.30278   0.10084
C          C       0.73477   0.93024   0.82163   0.58527
C          C       0.71611   0.00547   0.84618  -0.02464
C          C       0.71448   0.05474   0.80031  -0.09780
C          C       0.68543   0.11712   0.81697  -0.11871
C          C       0.65848   0.13270   0.88111   0.03197
C          C       0.66594   0.08671   0.93045  -0.13683
C          C       0.69342   0.02361   0.91280  -0.09762
C          C       0.62195   0.19474   0.89639   0.21420
C          C       0.57268   0.19115   0.94200  -0.22835
C          C       0.44824   0.30306   0.01651  -0.17436
C          C       0.40259   0.30250   0.06442   0.09446
C          C       0.94979   0.83861   0.76908   0.58205
C          C       0.00794   0.85330   0.72903  -0.05255
C          C       0.05700   0.80678   0.72602  -0.07885
C          C       0.11189   0.81814   0.68791  -0.11546
C          C       0.11932   0.87651   0.65203   0.05275
C          C       0.07060   0.92342   0.65627  -0.13266
C          C       0.01555   0.91228   0.69416  -0.08890
C          C       0.17884   0.89018   0.61268   0.20378
C          C       0.17143   0.93226   0.55998  -0.22540
C          C       0.28071   0.00632   0.43454  -0.18271
C          C       0.28138   0.05605   0.39029   0.09646
C          C       0.74280   0.03652   0.45743   0.09757
C          C       0.74344   0.98609   0.50759   0.10799
C          C       0.46776   0.75466   0.03388   0.10069
C          C       0.51827   0.75506   0.98430   0.10083
C          C       0.03418   0.46272   0.75104   0.09972
C          C       0.98405   0.51309   0.75157   0.10407
C          C       0.23370   0.95445   0.53158   0.10251
C          C       0.23221   0.00381   0.48082   0.10261
C          C       0.54394   0.25332   0.96270   0.09570
C          C       0.49434   0.25361   0.01285   0.10871
C          C       0.96967   0.53707   0.25292   0.10018
C          C       0.02043   0.48724   0.25290   0.10244
N          N       0.74482   0.89054   0.60393  -0.21001
N          N       0.74273   0.13532   0.36420  -0.32756
N          N       0.61452   0.75545   0.88987  -0.19660
N          N       0.37239   0.75388   0.12935  -0.32852
N          N       0.89008   0.61064   0.75394  -0.20159
N          N       0.13088   0.36734   0.75147  -0.32951
N          N       0.23456   0.10078   0.38748  -0.19843
N          N       0.23933   0.86136   0.62977  -0.32464
N          N       0.39868   0.25385   0.10713  -0.21351
N          N       0.63555   0.25211   0.86407  -0.32572
N          N       0.11848   0.39390   0.25447  -0.20322
N          N       0.87383   0.63328   0.25373  -0.32967
O          O       0.40509   0.27978   0.29878  -0.55259
O          O       0.36859   0.20626   0.37102  -0.53476
O          O       0.28388   0.42544   0.26614  -0.55210
O          O       0.35441   0.37393   0.19604  -0.58383
O          O       0.25397   0.26498   0.42555  -0.56679
O          O       0.21808   0.36084   0.38405  -0.55821
O          O       0.22568   0.22650   0.07221  -0.57529
O          O       0.15248   0.29081   0.12638  -0.56163
O          O       0.23717   0.08315   0.22493  -0.56912
O          O       0.30502   0.13413   0.15255  -0.59440
O          O       0.07970   0.23272   0.24074  -0.56627
O          O       0.11633   0.13816   0.28378  -0.57243
O          O       0.57840   0.74159   0.72570  -0.55284
O          O       0.61477   0.78492   0.63188  -0.55635
O          O       0.71911   0.57481   0.72329  -0.56034
O          O       0.64376   0.62480   0.78745  -0.55942
O          O       0.75121   0.73944   0.58044  -0.57553
O          O       0.80622   0.65774   0.63129  -0.56307
O          O       0.77802   0.76794   0.92450  -0.55673
O          O       0.84946   0.69791   0.87526  -0.57102
O          O       0.76190   0.92027   0.76464  -0.59337
O          O       0.72006   0.88240   0.85804  -0.54726
O          O       0.93862   0.78416   0.79626  -0.49631
O          O       0.90904   0.88953   0.77239  -0.46988
O          O       0.74168   0.74319   0.73712  -0.89711
O          O       0.25414   0.25027   0.25837  -0.79867

