data_crystal

_audit_creation_method 'AiiDA-DDEC plugin'

_cell_length_a        10.42943
_cell_length_b        26.30765
_cell_length_c        27.92360

_cell_angle_alpha     90.00000
_cell_angle_beta     90.00000
_cell_angle_gamma     91.71172

_symmetry_space_group_name_Hall 'P 1'
_symmetry_space_group_name_H-M  'P 1'

loop_
_symmetry_equiv_pos_as_xyz
 'x,y,z'

loop_
_atom_site_label
_atom_site_type_symbol
_atom_site_fract_x
_atom_site_fract_y
_atom_site_fract_z
_atom_site_charge
Zn         Zn      0.31493   0.22649   0.16827   0.98107
Zn         Zn      0.04807   0.37484   0.66259   0.98030
Zn         Zn      0.88995   0.26625   0.66302   0.99925
Zn         Zn      0.04088   0.29972   0.56714   0.98474
Zn         Zn      0.68508   0.77351   0.83173   0.98103
Zn         Zn      0.81493   0.72649   0.33173   0.98106
Zn         Zn      0.95194   0.62516   0.33741   0.98022
Zn         Zn      0.45193   0.12516   0.16259   0.98033
Zn         Zn      0.95912   0.70028   0.43286   0.98477
Zn         Zn      0.18508   0.27351   0.66827   0.98107
Zn         Zn      0.54088   0.79971   0.93286   0.98473
Zn         Zn      0.61006   0.23375   0.16302   0.99933
Zn         Zn      0.54807   0.87483   0.83741   0.98040
Zn         Zn      0.38995   0.76625   0.83698   0.99926
Zn         Zn      0.11006   0.73375   0.33698   0.99929
Zn         Zn      0.45912   0.20028   0.06714   0.98479
H          H       0.21878   0.77621   0.10001   0.11834
H          H       0.54812   0.33652   0.68196   0.13662
H          H       0.84794   0.96540   0.76611   0.12525
H          H       0.32906   0.24729   0.46997   0.12539
H          H       0.28122   0.72379   0.60001   0.11834
H          H       0.35055   0.18662   0.32026   0.13280
H          H       0.64660   0.80480   0.59083   0.11724
H          H       0.25968   0.45289   0.27673   0.12220
H          H       0.26453   0.96712   0.76869   0.12532
H          H       0.02065   0.41456   0.46320   0.12002
H          H       0.35340   0.19520   0.40917   0.11721
H          H       0.78576   0.23353   0.81135   0.12869
H          H       0.88854   0.10368   0.67101   0.13031
H          H       0.74456   0.24356   0.47152   0.12448
H          H       0.74032   0.54711   0.72328   0.12222
H          H       0.11823   0.98452   0.29642   0.11592
H          H       0.51102   0.00831   0.91141   0.11960
H          H       0.85340   0.69520   0.09083   0.11718
H          H       0.47936   0.08544   0.96320   0.11997
H          H       0.17094   0.25271   0.96997   0.12537
H          H       0.74645   0.63434   0.75744   0.12946
H          H       0.75544   0.25644   0.97152   0.12437
H          H       0.14660   0.30480   0.90917   0.11729
H          H       0.24457   0.74356   0.02849   0.12450
H          H       0.52065   0.91456   0.03680   0.12016
H          H       0.95189   0.16348   0.18196   0.13659
H          H       0.04812   0.83652   0.81804   0.13662
H          H       0.53489   0.25644   0.60283   0.14170
H          H       0.11147   0.89631   0.32899   0.13053
H          H       0.67095   0.75271   0.53003   0.12555
H          H       0.28576   0.73353   0.68865   0.12869
H          H       0.75968   0.95289   0.22328   0.12208
H          H       0.98898   0.49169   0.41141   0.11960
H          H       0.38854   0.60368   0.82899   0.13032
H          H       0.97936   0.58544   0.53680   0.11996
H          H       0.85055   0.68661   0.17974   0.13283
H          H       0.65207   0.53460   0.26611   0.12553
H          H       0.75356   0.86565   0.25744   0.12951
H          H       0.76453   0.46712   0.73131   0.12535
H          H       0.14945   0.31338   0.82026   0.13276
H          H       0.82906   0.74729   0.03003   0.12529
H          H       0.38177   0.51547   0.79642   0.11594
H          H       0.61146   0.39632   0.17101   0.13040
H          H       0.15206   0.03460   0.23389   0.12543
H          H       0.64945   0.81338   0.67974   0.13284
H          H       0.61823   0.48453   0.20358   0.11592
H          H       0.21425   0.76647   0.18865   0.12873
H          H       0.45189   0.66348   0.31804   0.13653
H          H       0.96511   0.24356   0.10283   0.14169
H          H       0.23547   0.53288   0.26869   0.12523
H          H       0.24032   0.04711   0.77673   0.12223
H          H       0.25355   0.36566   0.24256   0.12952
H          H       0.48898   0.99169   0.08859   0.11964
H          H       0.78122   0.22379   0.89999   0.11838
H          H       0.88177   0.01547   0.70358   0.11588
H          H       0.25544   0.75644   0.52849   0.12432
H          H       0.71424   0.26647   0.31135   0.12870
H          H       0.01103   0.50831   0.58859   0.11966
H          H       0.46511   0.74356   0.39717   0.14162
H          H       0.73547   0.03288   0.23131   0.12529
H          H       0.71878   0.27621   0.39999   0.11839
H          H       0.03489   0.75643   0.89718   0.14154
H          H       0.24645   0.13434   0.74256   0.12955
H          H       0.34794   0.46540   0.73389   0.12537
C          C       0.29469   0.25928   0.56521   0.59388
C          C       0.86121   0.24410   0.88286  -0.12582
C          C       0.98844   0.54786   0.52123  -0.10022
C          C       0.15214   0.75024   0.96055  -0.02969
C          C       0.16766   0.10778   0.73434  -0.08889
C          C       0.41874   0.25209   0.53868  -0.03090
C          C       0.53655   0.24256   0.46364   0.07065
C          C       0.99384   0.49469   0.45018  -0.09846
C          C       0.77550   0.25435   0.56730   0.59666
C          C       0.08126   0.24791   0.03868  -0.03066
C          C       0.84786   0.24975   0.03946  -0.02976
C          C       0.66766   0.60778   0.76566  -0.08876
C          C       0.33162   0.59981   0.29529  -0.02825
C          C       0.56142   0.55283   0.27255  -0.12053
C          C       0.56813   0.78859   0.61209  -0.13158
C          C       0.58007   0.75343   0.51101  -0.12316
C          C       0.43005   0.32258   0.18568   0.57564
C          C       0.46384   0.76348   0.58871   0.08423
C          C       0.58126   0.74791   0.46132  -0.03087
C          C       0.78881   0.37517   0.68889   0.58298
C          C       0.03199   0.72599   0.18944  -0.00340
C          C       0.46802   0.77401   0.68944  -0.00360
C          C       0.33591   0.44114   0.25297  -0.12979
C          C       0.20531   0.24072   0.06521   0.59377
C          C       0.55053   0.37449   0.69727  -0.06732
C          C       0.83235   0.89222   0.26566  -0.08876
C          C       0.91874   0.75209   0.96133  -0.03075
C          C       0.96498   0.24720   0.06406  -0.07036
C          C       0.06769   0.12416   0.70483  -0.00478
C          C       0.28881   0.87517   0.81111   0.58297
C          C       0.97349   0.27886   0.75699   0.56421
C          C       0.66839   0.40019   0.70471  -0.02810
C          C       0.53545   0.40956   0.19414  -0.08784
C          C       0.91993   0.74656   0.01101  -0.12298
C          C       0.96449   0.58850   0.44034   0.59529
C          C       0.96102   0.04146   0.71278  -0.12642
C          C       0.96802   0.27401   0.81056  -0.00347
C          C       0.03502   0.75280   0.93594  -0.07041
C          C       0.50616   0.00531   0.95019  -0.09897
C          C       0.03898   0.95854   0.28722  -0.12652
C          C       0.13649   0.75089   0.16668  -0.08928
C          C       0.06052   0.02456   0.74279   0.08316
C          C       0.84737   0.25435   0.98968  -0.12153
C          C       0.51779   0.95722   0.97125  -0.03227
C          C       0.93579   0.89820   0.79177  -0.03320
C          C       0.65214   0.25024   0.53946  -0.02972
C          C       0.41993   0.24657   0.48899  -0.12323
C          C       0.68805   0.62910   0.30396   0.59776
C          C       0.36352   0.74910   0.66668  -0.08920
C          C       0.43579   0.39820   0.70823  -0.03313
C          C       0.83591   0.94114   0.24703  -0.12980
C          C       0.96345   0.25744   0.96364   0.07050
C          C       0.05668   0.97312   0.76338   0.06951
C          C       0.47349   0.77886   0.74302   0.56425
C          C       0.56996   0.67742   0.81432   0.57566
C          C       0.08007   0.25343   0.98900  -0.12306
C          C       0.93187   0.71140   0.11209  -0.13141
C          C       0.01156   0.45214   0.47877  -0.10011
C          C       0.06993   0.29392   0.83846  -0.08685
C          C       0.16839   0.90018   0.79529  -0.02830
C          C       0.63879   0.25590   0.38286  -0.12588
C          C       0.46455   0.59044   0.80587  -0.08783
C          C       0.33235   0.39222   0.23434  -0.08879
C          C       0.65263   0.24565   0.48968  -0.12172
C          C       0.22451   0.74565   0.43271   0.59689
C          C       0.43948   0.47544   0.24279   0.08340
C          C       0.56052   0.52456   0.75722   0.08340
C          C       0.43232   0.37584   0.20483  -0.00481
C          C       0.13880   0.75590   0.11714  -0.12585
C          C       0.06421   0.10180   0.20823  -0.03301
C          C       0.43007   0.20608   0.33845  -0.08694
C          C       0.86351   0.24910   0.83333  -0.08937
C          C       0.53552   0.91149   0.94034   0.59492
C          C       0.21119   0.62483   0.31111   0.58313
C          C       0.17144   0.94881   0.77542  -0.12104
C          C       0.46345   0.75743   0.53636   0.07053
C          C       0.93232   0.87584   0.29517  -0.00477
C          C       0.67144   0.44881   0.72458  -0.12111
C          C       0.56993   0.79392   0.66155  -0.08673
C          C       0.83162   0.09981   0.20471  -0.02819
C          C       0.93859   0.94716   0.77255  -0.12059
C          C       0.06142   0.05284   0.22745  -0.12055
C          C       0.15263   0.74565   0.01032  -0.12145
C          C       0.56769   0.62416   0.79517  -0.00476
C          C       0.48844   0.04786   0.97877  -0.10001
C          C       0.49384   0.99469   0.04982  -0.09859
C          C       0.05053   0.87449   0.80273  -0.06701
C          C       0.71119   0.12483   0.18889   0.58309
C          C       0.70531   0.74072   0.43479   0.59412
C          C       0.00616   0.50531   0.54982  -0.09852
C          C       0.93005   0.82258   0.31432   0.57557
C          C       0.31195   0.37089   0.69604   0.59798
C          C       0.46102   0.54146   0.78722  -0.12648
C          C       0.56421   0.60180   0.29177  -0.03308
C          C       0.53199   0.22599   0.31056  -0.00345
C          C       0.34737   0.75434   0.51032  -0.12141
C          C       0.94333   0.02688   0.23662   0.06938
C          C       0.55668   0.47312   0.73662   0.06960
C          C       0.52651   0.22114   0.25699   0.56408
C          C       0.48221   0.04277   0.02875  -0.03265
C          C       0.02651   0.72114   0.24301   0.56400
C          C       0.82856   0.05119   0.22458  -0.12101
C          C       0.93948   0.97544   0.25722   0.08332
C          C       0.01779   0.45722   0.52875  -0.03248
C          C       0.63649   0.25089   0.33332  -0.08930
C          C       0.43858   0.44716   0.72745  -0.12056
C          C       0.53898   0.45854   0.21278  -0.12646
C          C       0.36121   0.74410   0.61714  -0.12589
C          C       0.46449   0.08851   0.05966   0.59533
C          C       0.03552   0.41149   0.55966   0.59493
C          C       0.03655   0.74256   0.03636   0.07048
C          C       0.53616   0.23652   0.41129   0.08426
C          C       0.96384   0.26348   0.91129   0.08429
C          C       0.72450   0.24565   0.06730   0.59676
C          C       0.06813   0.28859   0.88791  -0.13148
C          C       0.51156   0.95214   0.02123  -0.10013
C          C       0.44947   0.62551   0.30273  -0.06741
C          C       0.43187   0.21140   0.38791  -0.13137
C          C       0.27550   0.75435   0.93271   0.59666
C          C       0.44333   0.52688   0.26338   0.06949
C          C       0.34786   0.74975   0.46055  -0.02999
C          C       0.18805   0.12911   0.19604   0.59795
C          C       0.94947   0.12551   0.19727  -0.06746
C          C       0.79469   0.75927   0.93479   0.59392
C          C       0.98221   0.54277   0.47125  -0.03261
C          C       0.46498   0.74720   0.43594  -0.07033
C          C       0.93007   0.70607   0.16155  -0.08700
C          C       0.66410   0.55885   0.74704  -0.12983
C          C       0.32857   0.55119   0.27542  -0.12094
C          C       0.03617   0.73652   0.08871   0.08430
C          C       0.53502   0.25280   0.56406  -0.07027
C          C       0.16409   0.05885   0.75297  -0.12962
C          C       0.03545   0.90956   0.30587  -0.08781
C          C       0.96455   0.09044   0.69414  -0.08788
C          C       0.81195   0.87089   0.80396   0.59798
C          C       0.06995   0.17742   0.68568   0.57568
O          O       0.62341   0.23255   0.04380  -0.54947
O          O       0.03890   0.36853   0.53820  -0.54989
O          O       0.32901   0.29540   0.19544  -0.52949
O          O       0.82901   0.79540   0.30456  -0.52955
O          O       0.62364   0.23996   0.23378  -0.53408
O          O       0.39604   0.89855   0.80221  -0.53555
O          O       0.19619   0.26982   0.53992  -0.54806
O          O       0.26657   0.74492   0.88816  -0.51667
O          O       0.22634   0.66652   0.33338  -0.52263
O          O       0.60396   0.10145   0.19779  -0.53540
O          O       0.73343   0.25508   0.11184  -0.51662
O          O       0.72634   0.16652   0.16662  -0.52269
O          O       0.12341   0.73255   0.45620  -0.54951
O          O       0.76657   0.24492   0.61184  -0.51647
O          O       0.46017   0.19466   0.13639  -0.99644
O          O       0.45453   0.08067   0.10457  -0.55561
O          O       0.92851   0.69954   0.26153  -0.55379
O          O       0.31847   0.32304   0.69057  -0.52373
O          O       0.87659   0.26745   0.54380  -0.54944
O          O       0.68153   0.67696   0.30944  -0.52392
O          O       0.78649   0.60192   0.30895  -0.53136
O          O       0.28649   0.10192   0.19105  -0.53163
O          O       0.37659   0.76744   0.95620  -0.54923
O          O       0.81848   0.82304   0.80944  -0.52359
O          O       0.02597   0.80817   0.33811  -0.54217
O          O       0.46110   0.13146   0.03820  -0.55007
O          O       0.20097   0.24523   0.11029  -0.53220
O          O       0.07149   0.30045   0.73847  -0.55398
O          O       0.53890   0.86853   0.96181  -0.54968
O          O       0.10396   0.60145   0.30221  -0.53543
O          O       0.71352   0.89808   0.80895  -0.53196
O          O       0.03983   0.30534   0.63639  -0.99638
O          O       0.53983   0.80534   0.86362  -0.99639
O          O       0.21352   0.39808   0.69105  -0.53179
O          O       0.18153   0.17696   0.19056  -0.52386
O          O       0.87636   0.26004   0.73378  -0.53414
O          O       0.96017   0.69465   0.36362  -0.99639
O          O       0.67099   0.70460   0.80456  -0.52942
O          O       0.80381   0.73018   0.46008  -0.54794
O          O       0.29903   0.25476   0.61029  -0.53208
O          O       0.69619   0.76982   0.96008  -0.54792
O          O       0.54548   0.91933   0.89543  -0.55566
O          O       0.47404   0.69183   0.83811  -0.54232
O          O       0.30381   0.23018   0.03992  -0.54792
O          O       0.52597   0.30817   0.16189  -0.54231
O          O       0.95453   0.58067   0.39543  -0.55560
O          O       0.42851   0.19955   0.23847  -0.55390
O          O       0.57150   0.80045   0.76154  -0.55394
O          O       0.77366   0.33348   0.66662  -0.52266
O          O       0.79904   0.75476   0.88971  -0.53224
O          O       0.23343   0.75508   0.38816  -0.51671
O          O       0.12364   0.73996   0.26622  -0.53408
O          O       0.37636   0.76004   0.76622  -0.53418
O          O       0.70097   0.74523   0.38971  -0.53244
O          O       0.97403   0.19183   0.66189  -0.54242
O          O       0.17099   0.20460   0.69545  -0.52940
O          O       0.96110   0.63146   0.46181  -0.55005
O          O       0.27366   0.83348   0.83338  -0.52242
O          O       0.04548   0.41933   0.60457  -0.55540
O          O       0.89604   0.39855   0.69779  -0.53536

