data_crystal

_audit_creation_method 'AiiDA-DDEC plugin'

_cell_length_a        12.30358
_cell_length_b        20.11126
_cell_length_c        20.11639

_cell_angle_alpha     102.56551
_cell_angle_beta     94.50882
_cell_angle_gamma     94.53243

_symmetry_space_group_name_Hall 'P 1'
_symmetry_space_group_name_H-M  'P 1'

loop_
_symmetry_equiv_pos_as_xyz
 'x,y,z'

loop_
_atom_site_label
_atom_site_type_symbol
_atom_site_fract_x
_atom_site_fract_y
_atom_site_fract_z
_atom_site_charge
Zn         Zn      0.61580   0.07489   0.56404   0.81576
Zn         Zn      0.80602   0.01855   0.52728   0.81750
Zn         Zn      0.40655   0.33506   0.60751   0.84671
Zn         Zn      0.50469   0.49058   0.75640   0.85416
Zn         Zn      0.11461   0.56400   0.07505   0.81785
Zn         Zn      0.30470   0.52725   0.01849   0.81865
Zn         Zn      0.90751   0.60738   0.33501   0.84768
Zn         Zn      0.00450   0.75616   0.49027   0.85367
H          H       0.49671   0.20009   0.53691   0.11576
H          H       0.56371   0.22090   0.62162   0.10398
H          H       0.53755   0.14435   0.69767   0.10518
H          H       0.45324   0.06544   0.66860   0.10512
H          H       0.36211   0.03597   0.55352   0.09440
H          H       0.38202   0.09248   0.49722   0.10480
H          H       0.31170   0.25131   0.70413   0.09295
H          H       0.45645   0.25043   0.71852   0.09588
H          H       0.19758   0.14473   0.66427   0.08371
H          H       0.25766   0.06549   0.64807   0.08924
H          H       0.30144   0.20014   0.51793   0.10424
H          H       0.22173   0.22164   0.58897   0.09670
H          H       0.85732   0.87293   0.46882   0.10519
H          H       0.91268   0.89251   0.55584   0.10857
H          H       0.98361   0.02876   0.43000   0.10475
H          H       0.89813   0.95098   0.39619   0.10558
H          H       0.02929   0.99810   0.60218   0.10420
H          H       0.06075   0.05557   0.54852   0.09520
H          H       0.97575   0.84334   0.37854   0.09702
H          H       0.11877   0.84068   0.39926   0.09509
H          H       0.17676   0.02573   0.45946   0.08827
H          H       0.23368   0.94509   0.44587   0.08442
H          H       0.19484   0.86773   0.51806   0.09943
H          H       0.10727   0.88956   0.58448   0.09999
H          H       0.67071   0.85637   0.34584   0.11584
H          H       0.26507   0.86156   0.32088   0.10836
H          H       0.38410   0.95013   0.40876   0.10557
H          H       0.65440   0.75587   0.24720   0.10228
H          H       0.53567   0.66747   0.15832   0.10227
H          H       0.24770   0.75543   0.22726   0.11581
H          H       0.93081   0.15375   0.40517   0.11073
H          H       0.98388   0.24975   0.35021   0.11497
H          H       0.64094   0.24695   0.46716   0.12832
H          H       0.94767   0.36187   0.32402   0.11689
H          H       0.66986   0.46091   0.39822   0.12318
H          H       0.60773   0.35987   0.44412   0.12108
H          H       0.12176   0.33560   0.62847   0.11287
H          H       0.97437   0.51146   0.80424   0.11225
H          H       0.17468   0.50803   0.80049   0.10982
H          H       0.93105   0.29033   0.57820   0.11263
H          H       0.73103   0.29487   0.58070   0.11181
H          H       0.78295   0.46382   0.75621   0.11726
H          H       0.78721   0.84879   0.62504   0.12173
H          H       0.42935   0.82683   0.72293   0.11438
H          H       0.48196   0.92792   0.67499   0.11083
H          H       0.82847   0.73707   0.64698   0.12315
H          H       0.77415   0.63396   0.69217   0.12460
H          H       0.47220   0.71496   0.74691   0.11426
H          H       0.99654   0.53693   0.20009   0.11597
H          H       0.06353   0.62164   0.22082   0.10414
H          H       0.03743   0.69769   0.14438   0.10540
H          H       0.95317   0.66869   0.06550   0.10450
H          H       0.86191   0.55357   0.03603   0.09465
H          H       0.88178   0.49723   0.09251   0.10413
H          H       0.81161   0.70418   0.25135   0.09319
H          H       0.95640   0.71857   0.25041   0.09604
H          H       0.69744   0.66431   0.14478   0.08312
H          H       0.75761   0.64810   0.06555   0.08884
H          H       0.80120   0.51789   0.20013   0.10301
H          H       0.72157   0.58892   0.22173   0.09714
H          H       0.35694   0.46887   0.87308   0.10544
H          H       0.41234   0.55590   0.89255   0.10784
H          H       0.48330   0.43006   0.02879   0.10499
H          H       0.39771   0.39626   0.95108   0.10626
H          H       0.52909   0.60227   0.99812   0.10319
H          H       0.56053   0.54856   0.05555   0.09416
H          H       0.47537   0.37853   0.84335   0.09773
H          H       0.61838   0.39931   0.84070   0.09521
H          H       0.67645   0.45948   0.02562   0.08842
H          H       0.73329   0.44587   0.94496   0.08345
H          H       0.69445   0.51802   0.86765   0.09951
H          H       0.60702   0.58451   0.88951   0.09843
H          H       0.17130   0.34554   0.85612   0.11559
H          H       0.76574   0.32147   0.86208   0.10896
H          H       0.88534   0.40906   0.95042   0.10328
H          H       0.15474   0.24737   0.75600   0.10205
H          H       0.03572   0.15844   0.66756   0.10181
H          H       0.74792   0.22740   0.75562   0.11593
H          H       0.42959   0.40534   0.15360   0.10869
H          H       0.48364   0.35067   0.24959   0.11555
H          H       0.13994   0.46685   0.24742   0.12746
H          H       0.44765   0.32397   0.36168   0.11646
H          H       0.17033   0.39834   0.46125   0.12350
H          H       0.10752   0.44400   0.36019   0.12168
H          H       0.62195   0.62852   0.33597   0.11325
H          H       0.47434   0.80444   0.51164   0.11366
H          H       0.67474   0.80052   0.50826   0.11002
H          H       0.43140   0.57823   0.29050   0.11395
H          H       0.23118   0.58079   0.29492   0.11198
H          H       0.28314   0.75641   0.46389   0.11835
H          H       0.28620   0.62488   0.84931   0.12089
H          H       0.92914   0.72327   0.82629   0.11548
H          H       0.98049   0.67534   0.92748   0.11254
H          H       0.32858   0.64669   0.73779   0.12269
H          H       0.27573   0.69189   0.63453   0.12308
H          H       0.97312   0.74707   0.71441   0.11490
C          C       0.48897   0.19620   0.58981  -0.00420
C          C       0.46229   0.11951   0.66642  -0.00034
C          C       0.37244   0.08975   0.55032   0.00348
C          C       0.38206   0.22472   0.68666   0.00328
C          C       0.26882   0.11958   0.64593   0.00810
C          C       0.29214   0.19544   0.57055  -0.00545
C          C       0.92914   0.89653   0.50410  -0.00495
C          C       0.97074   0.97449   0.43103   0.00386
C          C       0.04659   0.00157   0.55031   0.00246
C          C       0.04757   0.86793   0.41366   0.00423
C          C       0.16168   0.97153   0.46054   0.00561
C          C       0.12347   0.89476   0.53289  -0.00269
C          C       0.60156   0.95885   0.43921   0.58438
C          C       0.53407   0.90743   0.38294  -0.02913
C          C       0.58226   0.85729   0.33972  -0.13686
C          C       0.51796   0.80711   0.28829   0.07830
C          C       0.40088   0.80761   0.28204   0.07562
C          C       0.35361   0.86021   0.32647  -0.13692
C          C       0.41863   0.90903   0.37509  -0.11050
C          C       0.56560   0.75577   0.24260  -0.13460
C          C       0.50096   0.70714   0.19373  -0.11247
C          C       0.38506   0.70665   0.18805  -0.02878
C          C       0.33651   0.75615   0.23180  -0.13657
C          C       0.31785   0.65167   0.13503   0.58685
C          C       0.75569   0.13848   0.47513   0.58763
C          C       0.78299   0.19503   0.44004  -0.04433
C          C       0.88027   0.19582   0.40623  -0.11695
C          C       0.90930   0.24885   0.37590  -0.13456
C          C       0.84365   0.30437   0.37871   0.07178
C          C       0.74529   0.30386   0.41273   0.07404
C          C       0.71619   0.24781   0.44213  -0.13362
C          C       0.87389   0.36090   0.35044  -0.15019
C          C       0.81280   0.41665   0.35812  -0.02807
C          C       0.71581   0.41631   0.39228  -0.10406
C          C       0.68195   0.36072   0.41796  -0.13180
C          C       0.85468   0.47819   0.33384   0.55522
C          C       0.27973   0.41732   0.71335   0.60210
C          C       0.15944   0.42020   0.71479  -0.04336
C          C       0.08844   0.37318   0.66699  -0.13252
C          C       0.97367   0.37464   0.66673   0.07617
C          C       0.93148   0.42486   0.71803   0.07545
C          C       0.00633   0.47289   0.76594  -0.12357
C          C       0.11768   0.47111   0.76409  -0.09589
C          C       0.89910   0.32792   0.61744  -0.12066
C          C       0.78783   0.33030   0.61865  -0.10122
C          C       0.74583   0.37903   0.67007  -0.04037
C          C       0.81657   0.42535   0.71874  -0.13094
C          C       0.62541   0.38134   0.67060   0.59823
C          C       0.66595   0.95358   0.61575   0.58586
C          C       0.63822   0.89435   0.64730  -0.04186
C          C       0.70946   0.84413   0.64674  -0.13335
C          C       0.68183   0.78579   0.67294   0.07473
C          C       0.57901   0.77968   0.70136   0.07364
C          C       0.50770   0.83216   0.70195  -0.13388
C          C       0.53636   0.88796   0.67541  -0.11015
C          C       0.75204   0.73252   0.67038  -0.13217
C          C       0.72197   0.67550   0.69479  -0.10382
C          C       0.61969   0.66893   0.72237  -0.03079
C          C       0.55041   0.72056   0.72603  -0.14346
C          C       0.58290   0.60423   0.74207   0.54284
C          C       0.98873   0.58984   0.19619  -0.00458
C          C       0.96210   0.66651   0.11955   0.00017
C          C       0.87217   0.55034   0.08979   0.00398
C          C       0.88196   0.68672   0.22475   0.00177
C          C       0.76868   0.64598   0.11963   0.00876
C          C       0.79197   0.57057   0.19550  -0.00267
C          C       0.42876   0.50417   0.89664  -0.00386
C          C       0.47033   0.43111   0.97455   0.00427
C          C       0.54629   0.55038   0.00157   0.00385
C          C       0.54714   0.41369   0.86793   0.00380
C          C       0.66132   0.46056   0.97145   0.00517
C          C       0.62315   0.53291   0.89474  -0.00238
C          C       0.10302   0.43903   0.95875   0.58468
C          C       0.03509   0.38292   0.90750  -0.03108
C          C       0.08287   0.33964   0.85726  -0.13370
C          C       0.01824   0.28837   0.80716   0.07493
C          C       0.90116   0.28227   0.80777   0.07786
C          C       0.85425   0.32682   0.86050  -0.13834
C          C       0.91963   0.37531   0.90927  -0.10844
C          C       0.06594   0.24274   0.75587  -0.13273
C          C       0.00129   0.19389   0.70731  -0.11325
C          C       0.88547   0.18819   0.70695  -0.02796
C          C       0.83675   0.23198   0.75636  -0.13670
C          C       0.81879   0.13498   0.65198   0.58721
C          C       0.25379   0.47495   0.13859   0.58720
C          C       0.28174   0.43992   0.19509  -0.04460
C          C       0.37924   0.40632   0.19575  -0.11350
C          C       0.40881   0.37611   0.24878  -0.13874
C          C       0.34345   0.37878   0.30443   0.07461
C          C       0.24495   0.41265   0.30405   0.07141
C          C       0.21531   0.44194   0.24805  -0.13350
C          C       0.37393   0.35045   0.36089  -0.15062
C          C       0.31303   0.35812   0.41671  -0.02978
C          C       0.21609   0.39238   0.41657  -0.10423
C          C       0.18185   0.41795   0.36103  -0.13087
C          C       0.35449   0.33378   0.47830   0.55659
C          C       0.77971   0.71325   0.41728   0.60034
C          C       0.65939   0.71482   0.42036  -0.04258
C          C       0.58839   0.66701   0.37342  -0.13341
C          C       0.47367   0.66677   0.37487   0.07603
C          C       0.43160   0.71815   0.42507   0.07479
C          C       0.50637   0.76607   0.47316  -0.12369
C          C       0.61771   0.76415   0.47135  -0.09762
C          C       0.39925   0.61747   0.32804  -0.12278
C          C       0.28799   0.61877   0.33035  -0.09740
C          C       0.24611   0.67032   0.37906  -0.04096
C          C       0.31677   0.71895   0.42544  -0.13040
C          C       0.12577   0.67082   0.38131   0.59564
C          C       0.16454   0.61580   0.95362   0.58558
C          C       0.13700   0.64735   0.89436  -0.03974
C          C       0.20861   0.64668   0.84434  -0.13328
C          C       0.18165   0.67290   0.78594   0.07519
C          C       0.07905   0.70144   0.77950   0.07234
C          C       0.00730   0.70214   0.83180  -0.13526
C          C       0.03531   0.67560   0.88770  -0.11363
C          C       0.25235   0.67024   0.73293  -0.13221
C          C       0.22305   0.69470   0.67583  -0.10266
C          C       0.12097   0.72244   0.66888  -0.03150
C          C       0.05122   0.72615   0.72029  -0.14378
C          C       0.08468   0.74210   0.60401   0.54428
N          N       0.47557   0.12292   0.59342  -0.16593
N          N       0.39319   0.23160   0.61449  -0.18574
N          N       0.36744   0.15310   0.69067  -0.21002
N          N       0.27676   0.12350   0.57387  -0.20806
N          N       0.94730   0.97007   0.50228  -0.16554
N          N       0.02629   0.86027   0.48436  -0.18574
N          N       0.06696   0.93980   0.41121  -0.21108
N          N       0.14347   0.96688   0.53126  -0.20960
N          N       0.97519   0.59347   0.12296  -0.16688
N          N       0.89306   0.61453   0.23161  -0.18592
N          N       0.86729   0.69074   0.15315  -0.20813
N          N       0.77655   0.57389   0.12357  -0.20889
N          N       0.44691   0.50239   0.97017  -0.16676
N          N       0.52591   0.48441   0.86033  -0.18698
N          N       0.56652   0.41125   0.93979  -0.21159
N          N       0.64320   0.53132   0.96685  -0.20832
O          O       0.55034   0.00421   0.47538  -0.55223
O          O       0.70399   0.95301   0.44774  -0.55427
O          O       0.37086   0.61208   0.09375  -0.55391
O          O       0.21381   0.64774   0.13501  -0.55605
O          O       0.67099   0.14174   0.50814  -0.54912
O          O       0.82014   0.09116   0.47095  -0.55198
O          O       0.92594   0.47491   0.29222  -0.55943
O          O       0.81467   0.53538   0.36042  -0.56324
O          O       0.59549   0.99694   0.61564  -0.54797
O          O       0.34182   0.47117   0.74315  -0.53117
O          O       0.31286   0.36058   0.68382  -0.59133
O          O       0.56648   0.35415   0.61437  -0.52498
O          O       0.58698   0.40772   0.72654  -0.59515
O          O       0.75719   0.95603   0.58974  -0.55629
O          O       0.64471   0.55538   0.73701  -0.55236
O          O       0.48650   0.59609   0.76144  -0.55112
O          O       0.05223   0.47534   0.00415  -0.55161
O          O       0.20551   0.44744   0.95280  -0.55385
O          O       0.87234   0.09401   0.61234  -0.55482
O          O       0.71469   0.13469   0.64828  -0.55567
O          O       0.16899   0.50784   0.14196  -0.55025
O          O       0.31799   0.47087   0.09114  -0.55237
O          O       0.42183   0.28968   0.47484  -0.56045
O          O       0.31772   0.36324   0.53566  -0.56071
O          O       0.09426   0.61578   0.99704  -0.54893
O          O       0.84149   0.74277   0.47136  -0.53043
O          O       0.81353   0.68395   0.36064  -0.59070
O          O       0.06741   0.61435   0.35425  -0.52206
O          O       0.08653   0.72660   0.40744  -0.59511
O          O       0.25570   0.58969   0.95599  -0.55641
O          O       0.14654   0.73698   0.55528  -0.55365
O          O       0.98821   0.76148   0.59581  -0.55308

