data_crystal

_audit_creation_method 'AiiDA-DDEC plugin'

_cell_length_a        16.21479
_cell_length_b        17.27546
_cell_length_c        18.30403

_cell_angle_alpha     68.44550
_cell_angle_beta     64.65876
_cell_angle_gamma     64.08116

_symmetry_space_group_name_Hall 'P 1'
_symmetry_space_group_name_H-M  'P 1'

loop_
_symmetry_equiv_pos_as_xyz
 'x,y,z'

loop_
_atom_site_label
_atom_site_type_symbol
_atom_site_fract_x
_atom_site_fract_y
_atom_site_fract_z
_atom_site_charge
Cd         Cd      0.53197   0.21354   0.54597   0.94247
Cd         Cd      0.44633   0.29048   0.75044   1.11038
Cd         Cd      0.36407   0.38916   0.93569   0.93976
Cd         Cd      0.46803   0.78646   0.45403   0.94246
Cd         Cd      0.55366   0.70952   0.24955   1.11047
Cd         Cd      0.63593   0.61085   0.06431   0.93980
H          H       0.51680   0.38289   0.38806   0.10891
H          H       0.47125   0.42934   0.26039   0.14152
H          H       0.51604   0.15490   0.28884   0.13145
H          H       0.55599   0.12128   0.41649   0.10899
H          H       0.52067   0.42113   0.12086   0.13668
H          H       0.46936   0.44969  -0.00061   0.09321
H          H       0.34183   0.25558   0.11541   0.11415
H          H       0.38192   0.22130   0.24414   0.12250
H          H       0.67928   0.27892   0.68144   0.10885
H          H       0.76389   0.35635   0.70036   0.11131
H          H       0.68271   0.57476   0.50478   0.09916
H          H       0.59734   0.49751   0.48657   0.11864
H          H       0.90407   0.40012   0.62975   0.11281
H          H       0.93809   0.64476   0.59898   0.11252
H          H       0.67784   0.64521   0.58929   0.09476
H          H       0.05755   0.35994   0.57689   0.10846
H          H       0.21856   0.27758   0.59464   0.11140
H          H       0.18775   0.48121   0.69504   0.12522
H          H       0.02348   0.56184   0.68272   0.11212
H          H       0.83651   0.76595   0.64717   0.10774
H          H       0.75819   0.92831   0.63128   0.12142
H          H       0.59064   0.92851   0.50176   0.12259
H          H       0.67353   0.76933   0.51094   0.10605
H          H       0.64921   0.29587   0.92973   0.11188
H          H       0.81216   0.21999   0.94701   0.10787
H          H       0.88071   0.04346   0.79723   0.11576
H          H       0.71514   0.11571   0.78605   0.12626
H          H       0.97733   0.19637   0.87877   0.11246
H          H       0.21114   0.95292   0.90896   0.11074
H          H       0.95884   0.95245   0.88590   0.10611
H          H       0.11913   0.24044   0.80304   0.11308
H          H       0.20318   0.32028   0.81952   0.11455
H          H       0.28114   0.10708   0.01918   0.12139
H          H       0.20073   0.02487   0.00075   0.10529
H          H       0.27761   0.85390   0.82424   0.10560
H          H       0.35583   0.69251   0.83508   0.08958
H          H       0.08470   0.65241   0.98749   0.12440
H          H       0.00421   0.81427   0.97719   0.10031
H          H       0.48320   0.61711   0.61194   0.10889
H          H       0.52874   0.57067   0.73961   0.14135
H          H       0.48395   0.84511   0.71116   0.13141
H          H       0.44401   0.87872   0.58351   0.10912
H          H       0.47933   0.57887   0.87914   0.13668
H          H       0.53064   0.55032   0.00060   0.09310
H          H       0.65817   0.74443   0.88458   0.11412
H          H       0.61808   0.77870   0.75586   0.12270
H          H       0.32072   0.72109   0.31855   0.10908
H          H       0.23610   0.64365   0.29964   0.11141
H          H       0.31728   0.42525   0.49522   0.09893
H          H       0.40265   0.50249   0.51342   0.11854
H          H       0.09593   0.59989   0.37024   0.11287
H          H       0.06190   0.35525   0.40101   0.11243
H          H       0.32215   0.35480   0.41070   0.09472
H          H       0.94244   0.64006   0.42310   0.10851
H          H       0.78144   0.72243   0.40536   0.11156
H          H       0.81224   0.51880   0.30495   0.12527
H          H       0.97652   0.43816   0.31728   0.11208
H          H       0.16349   0.23405   0.35282   0.10791
H          H       0.24180   0.07169   0.36872   0.12140
H          H       0.40936   0.07150   0.49824   0.12245
H          H       0.32646   0.23068   0.48906   0.10609
H          H       0.35079   0.70413   0.07026   0.11182
H          H       0.18784   0.78002   0.05299   0.10786
H          H       0.11929   0.95654   0.20277   0.11584
H          H       0.28485   0.88429   0.21395   0.12621
H          H       0.02267   0.80363   0.12123   0.11224
H          H       0.78886   0.04709   0.09103   0.11082
H          H       0.04115   0.04755   0.11410   0.10614
H          H       0.88087   0.75956   0.19695   0.11288
H          H       0.79682   0.67973   0.18048   0.11439
H          H       0.71886   0.89293   0.98082   0.12155
H          H       0.79927   0.97514  -0.00076   0.10549
H          H       0.72238   0.14610   0.17576   0.10552
H          H       0.64417   0.30750   0.16492   0.08966
H          H       0.91530   0.34759   0.01251   0.12446
H          H       0.99578   0.18574   0.02281   0.10027
C          C       0.51531   0.33500   0.36365   0.09221
C          C       0.49023   0.36013   0.29243  -0.15531
C          C       0.48650   0.29592   0.26511   0.10043
C          C       0.51438   0.20796   0.30853  -0.16325
C          C       0.53828   0.18821   0.37916   0.09269
C          C       0.45553   0.31818   0.19280   0.10666
C          C       0.47884   0.38448   0.12318  -0.17396
C          C       0.45213   0.39965   0.05513   0.08900
C          C       0.38059   0.29066   0.12007   0.09106
C          C       0.40445   0.27140   0.19078  -0.16749
C          C       0.58741   0.33296   0.56975   0.56261
C          C       0.63271   0.38290   0.58323  -0.06076
C          C       0.67966   0.34420   0.64351  -0.09711
C          C       0.72816   0.38754   0.65315  -0.13221
C          C       0.73026   0.47124   0.60281   0.07587
C          C       0.68068   0.51044   0.54419  -0.14092
C          C       0.63336   0.46694   0.53348  -0.07765
C          C       0.78544   0.51763   0.60731   0.07429
C          C       0.87577   0.47170   0.61982  -0.17654
C          C       0.93109   0.51678   0.61794   0.07238
C          C       0.89364   0.60940   0.60432  -0.18666
C          C       0.80206   0.65694   0.59409   0.06973
C          C       0.74935   0.60972   0.59571  -0.18213
C          C       0.02783   0.46746   0.62834   0.07390
C          C       0.08408   0.38602   0.60501  -0.13361
C          C       0.17564   0.34007   0.61343  -0.08874
C          C       0.21459   0.37457   0.64463  -0.04980
C          C       0.15825   0.45483   0.66990  -0.08249
C          C       0.06635   0.50026   0.66202  -0.13981
C          C       0.31570   0.32814   0.64810   0.57820
C          C       0.76021   0.75429   0.58148   0.06286
C          C       0.78401   0.80135   0.61393  -0.14650
C          C       0.73939   0.89236   0.60619  -0.10007
C          C       0.66774   0.93891   0.56728  -0.03006
C          C       0.64527   0.89318   0.53291  -0.10029
C          C       0.69180   0.80274   0.53902  -0.13950
C          C       0.61539   0.03575   0.56201   0.53936
C          C       0.57457   0.25645   0.84550   0.57724
C          C       0.67172   0.21039   0.85729  -0.04773
C          C       0.70035   0.24005   0.90158  -0.09093
C          C       0.79234   0.19797   0.91007  -0.13758
C          C       0.85882   0.12611   0.87293   0.07692
C          C       0.82949   0.09736   0.82806  -0.14488
C          C       0.73712   0.13813   0.82097  -0.09003
C          C       0.95675   0.08002   0.88112   0.06932
C          C       0.00904   0.12542   0.88348  -0.18107
C          C       0.10070   0.08011   0.89391   0.07111
C          C       0.14052   0.98865   0.90028  -0.17867
C          C       0.09066   0.94207   0.89634   0.07559
C          C      -0.00137   0.98842   0.88751  -0.17632
C          C       0.15336   0.12711   0.90113   0.07792
C          C       0.15441   0.21092   0.85047  -0.13053
C          C       0.20195   0.25577   0.85921  -0.10294
C          C       0.24756   0.21884   0.92030  -0.05267
C          C       0.24662   0.13531   0.97138  -0.09068
C          C       0.20134   0.08955   0.96090  -0.14419
C          C       0.29357   0.26949   0.93199   0.56887
C          C       0.13551   0.84596   0.90131   0.07154
C          C       0.23525   0.81008   0.86142  -0.14296
C          C       0.27945   0.71967   0.86732  -0.10277
C          C       0.22599   0.66212   0.91323  -0.03326
C          C       0.12609   0.69730   0.95221  -0.09014
C          C       0.08146   0.78815   0.94581  -0.13751
C          C       0.27528   0.56509   0.91998   0.55016
C          C       0.48469   0.66501   0.63634   0.09207
C          C       0.50977   0.63988   0.70757  -0.15549
C          C       0.51350   0.70408   0.73488   0.10028
C          C       0.48561   0.79204   0.69146  -0.16288
C          C       0.46172   0.81180   0.62084   0.09266
C          C       0.54446   0.68182   0.80720   0.10669
C          C       0.52116   0.61553   0.87682  -0.17396
C          C       0.54787   0.60036   0.94486   0.08884
C          C       0.61941   0.70935   0.87993   0.09115
C          C       0.59555   0.72861   0.80922  -0.16751
C          C       0.41259   0.66705   0.43024   0.56260
C          C       0.36729   0.61710   0.41677  -0.06085
C          C       0.32033   0.65581   0.35649  -0.09705
C          C       0.27184   0.61246   0.34685  -0.13205
C          C       0.26974   0.52877   0.39719   0.07587
C          C       0.31932   0.48956   0.45580  -0.14086
C          C       0.36663   0.53306   0.46651  -0.07783
C          C       0.21456   0.48238   0.39269   0.07418
C          C       0.12423   0.52830   0.38018  -0.17626
C          C       0.06891   0.48323   0.38206   0.07233
C          C       0.10636   0.39061   0.39568  -0.18654
C          C       0.19793   0.34306   0.40590   0.06966
C          C       0.25065   0.39029   0.40429  -0.18221
C          C       0.97217   0.53254   0.37166   0.07388
C          C       0.91592   0.61399   0.39499  -0.13363
C          C       0.82436   0.65994   0.38656  -0.08875
C          C       0.78541   0.62544   0.35537  -0.04985
C          C       0.84175   0.54518   0.33010  -0.08230
C          C       0.93365   0.49974   0.33798  -0.14009
C          C       0.68430   0.67187   0.35189   0.57823
C          C       0.23979   0.24571   0.41852   0.06305
C          C       0.21598   0.19866   0.38606  -0.14650
C          C       0.26060   0.10764   0.39380  -0.10018
C          C       0.33226   0.06110   0.43272  -0.03001
C          C       0.35473   0.10682   0.46709  -0.10034
C          C       0.30820   0.19727   0.46097  -0.13958
C          C       0.38460   0.96426   0.43799   0.53948
C          C       0.42542   0.74355   0.15449   0.57718
C          C       0.32828   0.78962   0.14271  -0.04777
C          C       0.29965   0.75996   0.09841  -0.09103
C          C       0.20766   0.80203   0.08993  -0.13754
C          C       0.14118   0.87390   0.12707   0.07701
C          C       0.17051   0.90264   0.17194  -0.14488
C          C       0.26287   0.86187   0.17902  -0.08994
C          C       0.04324   0.91998   0.11887   0.06934
C          C       0.99096   0.87458   0.11652  -0.18119
C          C       0.89930   0.91989   0.10609   0.07120
C          C       0.85948   0.01135   0.09972  -0.17858
C          C       0.90934   0.05794   0.10366   0.07566
C          C       0.00136   0.01159   0.11249  -0.17639
C          C       0.84664   0.87289   0.09887   0.07785
C          C       0.84559   0.78909   0.14953  -0.13049
C          C       0.79805   0.74424   0.14079  -0.10311
C          C       0.75244   0.78117   0.07970  -0.05263
C          C       0.75338   0.86470   0.02862  -0.09055
C          C       0.79866   0.91046   0.03909  -0.14417
C          C       0.70643   0.73051   0.06801   0.56890
C          C       0.86449   0.15404   0.09868   0.07155
C          C       0.76475   0.18993   0.13858  -0.14288
C          C       0.72055   0.28034   0.13267  -0.10295
C          C       0.77401   0.33788   0.08676  -0.03317
C          C       0.87391   0.30270   0.04779  -0.08996
C          C       0.91854   0.21185   0.05418  -0.13781
C          C       0.72472   0.43491   0.08002   0.55000
N          N       0.53628   0.25074   0.40795  -0.24680
N          N       0.40437   0.35364   0.05303  -0.23942
N          N       0.46372   0.74927   0.59204  -0.24646
N          N       0.59562   0.64636   0.94697  -0.23952
O          O       0.57167   0.35173   0.50262  -0.52244
O          O       0.56777   0.26606   0.62915  -0.61197
O          O       0.34135   0.36102   0.68452  -0.58064
O          O       0.36804   0.26191   0.61503  -0.56932
O          O       0.65394   0.08147   0.57036  -0.54938
O          O       0.53405   0.06998   0.54864  -0.56474
O          O       0.54912   0.21405   0.81816  -0.57213
O          O       0.52601   0.33335   0.85933  -0.58775
O          O       0.32201   0.32965   0.86754  -0.61108
O          O       0.30260   0.25788   0.00029  -0.52399
O          O       0.22463   0.51420   0.95663  -0.54693
O          O       0.36825   0.53505   0.88879  -0.58196
O          O       0.42833   0.64828   0.49738  -0.52272
O          O       0.43222   0.73395   0.37084  -0.61167
O          O       0.65865   0.63899   0.31548  -0.58081
O          O       0.63195   0.73809   0.38497  -0.56919
O          O       0.34605   0.91853   0.42963  -0.54939
O          O       0.46595   0.93002   0.45136  -0.56496
O          O       0.45088   0.78596   0.18184  -0.57207
O          O       0.47399   0.66666   0.14067  -0.58785
O          O       0.67799   0.67036   0.13245  -0.61150
O          O       0.69740   0.74212  -0.00030  -0.52364
O          O       0.77536   0.48580   0.04337  -0.54679
O          O       0.63174   0.46496   0.11121  -0.58184

