data_crystal

_audit_creation_method 'AiiDA-DDEC plugin'

_cell_length_a        18.62893
_cell_length_b        18.62898
_cell_length_c        19.54653

_cell_angle_alpha     90.00000
_cell_angle_beta     90.00000
_cell_angle_gamma     120.01774

_symmetry_space_group_name_Hall 'P 1'
_symmetry_space_group_name_H-M  'P 1'

loop_
_symmetry_equiv_pos_as_xyz
 'x,y,z'

loop_
_atom_site_label
_atom_site_type_symbol
_atom_site_fract_x
_atom_site_fract_y
_atom_site_fract_z
_atom_site_charge
Cu         Cu      0.52177   0.47823   0.94890   0.90826
Cu         Cu      0.95646   0.47823   0.94890   0.91664
Cu         Cu      0.52177   0.04355   0.94890   0.91561
Cu         Cu      0.47809   0.52191   0.44911   0.91068
Cu         Cu      0.04383   0.52191   0.44911   0.91079
Cu         Cu      0.47809   0.95617   0.44911   0.91070
Cu         Cu      0.04355   0.52177   0.05110   0.90741
Cu         Cu      0.47823   0.52177   0.05110   0.90837
Cu         Cu      0.47823   0.95645   0.05110   0.91554
Cu         Cu      0.95617   0.47808   0.55089   0.91082
Cu         Cu      0.52191   0.47809   0.55089   0.91077
Cu         Cu      0.52191   0.04383   0.55089   0.91078
Si         Si      0.73027   0.86513   0.74997   0.87319
Si         Si      0.13487   0.26973   0.74997   0.87321
Si         Si      0.13487   0.86513   0.74997   0.87321
Si         Si      0.26973   0.13487   0.25003   0.87337
Si         Si      0.86513   0.73027   0.25003   0.87338
Si         Si      0.86513   0.13487   0.25003   0.87320
H          H       0.65331   0.71041   0.83674   0.11788
H          H       0.83735   0.00120   0.79544   0.17588
H          H       0.05709   0.34668   0.83673   0.11774
H          H       0.16384   0.16265   0.79544   0.17585
H          H       0.28962   0.94292   0.83674   0.11788
H          H      -0.00118   0.83615   0.79544   0.17580
H          H       0.34670   0.28960   0.33678   0.11784
H          H       0.16264  -0.00121   0.29544   0.17587
H          H       0.94292   0.65331   0.33677   0.11795
H          H       0.83616   0.83736   0.29544   0.17583
H          H       0.71037   0.05707   0.33677   0.11778
H          H       0.00120   0.16385   0.29544   0.17593
H          H       0.94292   0.28961   0.16326   0.11786
H          H       0.83616  -0.00119   0.20456   0.17606
H          H       0.71041   0.65330   0.16325   0.11768
H          H       0.00120   0.83735   0.20456   0.17596
H          H       0.34669   0.05709   0.16326   0.11769
H          H       0.16265   0.16384   0.20456   0.17602
H          H       0.05707   0.71037   0.66322   0.11764
H          H       0.16385   0.00120   0.70455   0.17599
H          H       0.28961   0.34670   0.66322   0.11788
H          H      -0.00121   0.16264   0.70455   0.17607
H          H       0.65331   0.94291   0.66323   0.11774
H          H       0.83736   0.83616   0.70455   0.17607
H          H       0.34670   0.28959   0.16325   0.11771
H          H       0.16265  -0.00120   0.20456   0.17597
H          H       0.94291   0.65331   0.16326   0.11774
H          H       0.83617   0.83735   0.20456   0.17603
H          H       0.71039   0.05708   0.16326   0.11785
H          H       0.00119   0.16384   0.20456   0.17603
H          H       0.65330   0.71039   0.66322   0.11795
H          H       0.83736   0.00121   0.70455   0.17608
H          H       0.05708   0.34669   0.66323   0.11775
H          H       0.16384   0.16264   0.70455   0.17602
H          H       0.28963   0.94293   0.66322   0.11765
H          H      -0.00120   0.83615   0.70455   0.17598
H          H       0.05708   0.71038   0.83674   0.11781
H          H       0.16384   0.00119   0.79544   0.17581
H          H       0.28959   0.34669   0.83674   0.11785
H          H      -0.00120   0.16265   0.79544   0.17584
H          H       0.65332   0.94291   0.83673   0.11769
H          H       0.83735   0.83616   0.79544   0.17588
H          H       0.94293   0.28963   0.33677   0.11779
H          H       0.83615  -0.00120   0.29544   0.17596
H          H       0.71040   0.65330   0.33678   0.11779
H          H       0.00121   0.83736   0.29544   0.17586
H          H       0.34669   0.05708   0.33677   0.11791
H          H       0.16264   0.16384   0.29544   0.17585
H          H       0.51694   0.75846   0.98910   0.13831
H          H       0.24154   0.48306   0.98910   0.13837
H          H       0.24153   0.75847   0.98910   0.13853
H          H       0.48306   0.24153   0.48913   0.13828
H          H       0.75847   0.51694   0.48913   0.13828
H          H       0.75847   0.24153   0.48913   0.13827
H          H       0.75847   0.24153   0.01090   0.13855
H          H       0.75847   0.51694   0.01090   0.13850
H          H       0.48306   0.24153   0.01090   0.13850
H          H       0.24153   0.75847   0.51087   0.13861
H          H       0.24153   0.48306   0.51086   0.13841
H          H       0.51695   0.75847   0.51086   0.13839
H          H       0.76185   0.01344   0.75000   0.17750
H          H       0.25161   0.23816   0.75000   0.17758
H          H       0.98654   0.74839   0.75000   0.17764
H          H       0.23815   0.98656   0.25000   0.17769
H          H       0.74839   0.76184   0.25000   0.17754
H          H       0.01346   0.25161   0.25000   0.17759
H          H       0.74839   0.98654   0.25000   0.17758
H          H       0.01345   0.76185   0.25000   0.17772
H          H       0.23816   0.25161   0.25000   0.17758
H          H       0.25161   0.01346   0.75000   0.17766
H          H       0.98656   0.23815   0.75000   0.17756
H          H       0.76184   0.74839   0.75000   0.17761
C          C       0.63438   0.75252   0.85771  -0.05947
C          C       0.58229   0.72619   0.91524  -0.03454
C          C       0.55240   0.64222   0.94532   0.58462
C          C       0.11813   0.36562   0.85771  -0.05959
C          C       0.14390   0.41770   0.91524  -0.03432
C          C       0.08982   0.44760   0.94532   0.58447
C          C       0.24750   0.88188   0.85771  -0.05955
C          C       0.27381   0.85611   0.91524  -0.03440
C          C       0.35779   0.91018   0.94532   0.58444
C          C       0.36568   0.24754   0.35777  -0.05954
C          C       0.41771   0.27381   0.41534  -0.03445
C          C       0.44756   0.35759   0.44578   0.58545
C          C       0.88187   0.63433   0.35777  -0.05969
C          C       0.85611   0.58230   0.41534  -0.03435
C          C       0.91003   0.55244   0.44578   0.58560
C          C       0.75245   0.11812   0.35777  -0.05964
C          C       0.72619   0.14389   0.41534  -0.03448
C          C       0.64241   0.08997   0.44578   0.58572
C          C       0.88188   0.24750   0.14228  -0.05955
C          C       0.85611   0.27381   0.08476  -0.03431
C          C       0.91019   0.35779   0.05468   0.58473
C          C       0.75252   0.63438   0.14228  -0.05964
C          C       0.72619   0.58229   0.08475  -0.03448
C          C       0.64222   0.55239   0.05467   0.58473
C          C       0.36562   0.11813   0.14229  -0.05948
C          C       0.41770   0.14390   0.08476  -0.03434
C          C       0.44760   0.08982   0.05468   0.58411
C          C       0.11813   0.75245   0.64222  -0.05957
C          C       0.14389   0.72619   0.58466  -0.03438
C          C       0.08997   0.64241   0.55422   0.58558
C          C       0.24754   0.36568   0.64222  -0.05957
C          C       0.27381   0.41771   0.58465  -0.03449
C          C       0.35759   0.44756   0.55421   0.58562
C          C       0.63433   0.88187   0.64223  -0.05980
C          C       0.58230   0.85611   0.58466  -0.03422
C          C       0.55244   0.91002   0.55422   0.58561
C          C       0.36562   0.24748   0.14228  -0.05962
C          C       0.41771   0.27381   0.08475  -0.03448
C          C       0.44761   0.35778   0.05467   0.58469
C          C       0.88187   0.63438   0.14229  -0.05941
C          C       0.85611   0.58230   0.08476  -0.03444
C          C       0.91018   0.55240   0.05468   0.58424
C          C       0.75250   0.11812   0.14228  -0.05957
C          C       0.72619   0.14389   0.08476  -0.03435
C          C       0.64221   0.08982   0.05468   0.58456
C          C       0.63432   0.75246   0.64222  -0.05958
C          C       0.58229   0.72619   0.58465  -0.03445
C          C       0.55244   0.64241   0.55421   0.58569
C          C       0.11813   0.36567   0.64223  -0.05975
C          C       0.14389   0.41770   0.58466  -0.03424
C          C       0.08998   0.44756   0.55422   0.58559
C          C       0.24755   0.88187   0.64222  -0.05960
C          C       0.27381   0.85611   0.58466  -0.03434
C          C       0.35760   0.91003   0.55422   0.58550
C          C       0.11813   0.75250   0.85771  -0.05945
C          C       0.14389   0.72619   0.91524  -0.03441
C          C       0.08982   0.64221   0.94532   0.58450
C          C       0.24748   0.36562   0.85771  -0.05946
C          C       0.27381   0.41771   0.91524  -0.03456
C          C       0.35778   0.44761   0.94532   0.58456
C          C       0.63439   0.88187   0.85771  -0.05946
C          C       0.58230   0.85610   0.91524  -0.03445
C          C       0.55240   0.91018   0.94532   0.58443
C          C       0.88188   0.24755   0.35777  -0.05962
C          C       0.85611   0.27381   0.41534  -0.03449
C          C       0.91003   0.35759   0.44578   0.58578
C          C       0.75246   0.63432   0.35777  -0.05958
C          C       0.72619   0.58229   0.41534  -0.03447
C          C       0.64241   0.55244   0.44578   0.58548
C          C       0.36567   0.11813   0.35777  -0.05974
C          C       0.41770   0.14389   0.41534  -0.03433
C          C       0.44756   0.08997   0.44578   0.58558
C          C       0.66191   0.83096   0.82838  -0.24909
C          C       0.55700   0.77849   0.94443  -0.08634
C          C       0.16904   0.33809   0.82838  -0.24908
C          C       0.22151   0.44300   0.94443  -0.08638
C          C       0.16905   0.83095   0.82838  -0.24940
C          C       0.22150   0.77850   0.94443  -0.08637
C          C       0.33819   0.16909   0.32842  -0.24951
C          C       0.44303   0.22152   0.44446  -0.08601
C          C       0.83091   0.66181   0.32842  -0.24953
C          C       0.77848   0.55697   0.44446  -0.08598
C          C       0.83091   0.16909   0.32842  -0.24912
C          C       0.77849   0.22151   0.44446  -0.08596
C          C       0.83096   0.16904   0.17162  -0.24952
C          C       0.77850   0.22150   0.05556  -0.08636
C          C       0.83096   0.66191   0.17162  -0.24929
C          C       0.77850   0.55700   0.05556  -0.08619
C          C       0.33809   0.16904   0.17162  -0.24923
C          C       0.44300   0.22150   0.05556  -0.08625
C          C       0.16910   0.83090   0.67158  -0.24937
C          C       0.22152   0.77849   0.55554  -0.08604
C          C       0.16909   0.33819   0.67158  -0.24952
C          C       0.22152   0.44303   0.55554  -0.08606
C          C       0.66181   0.83091   0.67158  -0.24948
C          C       0.55697   0.77848   0.55554  -0.08613
C          C       0.79727   0.98084   0.74999  -0.73922
C          C       0.18356   0.20274   0.74999  -0.73912
C          C       0.01917   0.81643   0.74999  -0.73921
C          C       0.20273   0.01916   0.25001  -0.73928
C          C       0.81644   0.79726   0.25001  -0.73927
C          C       0.98083   0.18357   0.25001  -0.73921
C          C       0.81643   0.01917   0.25001  -0.73927
C          C       0.98084   0.79727   0.25001  -0.73925
C          C       0.20274   0.18356   0.25001  -0.73923
C          C       0.18357   0.98083   0.74999  -0.73923
C          C       0.01916   0.20273   0.74999  -0.73922
C          C       0.79726   0.81644   0.74999  -0.73914
O          O       0.56103   0.58959   0.90932  -0.53478
O          O       0.51996   0.62949   0.00510  -0.54273
O          O       0.02856   0.43897   0.90931  -0.53655
O          O       0.10954   0.48004   0.00510  -0.54283
O          O       0.41043   0.97146   0.90931  -0.53665
O          O       0.37050   0.89046   0.00509  -0.54435
O          O       0.43853   0.41029   0.41031  -0.53836
O          O       0.48035   0.37015   0.50537  -0.54109
O          O       0.97176   0.56146   0.41030  -0.53839
O          O       0.88981   0.51966   0.50537  -0.54124
O          O       0.58969   0.02822   0.41031  -0.53835
O          O       0.62985   0.11020   0.50537  -0.54125
O          O       0.97146   0.41043   0.09069  -0.53536
O          O       0.89046   0.37050   0.99490  -0.54414
O          O       0.58959   0.56103   0.09068  -0.53532
O          O       0.62950   0.51996   0.99490  -0.54233
O          O       0.43897   0.02856   0.09069  -0.53679
O          O       0.48004   0.10954   0.99490  -0.54409
O          O       0.02822   0.58968   0.58969  -0.53862
O          O       0.11020   0.62985   0.49463  -0.54094
O          O       0.41029   0.43853   0.58968  -0.53855
O          O       0.37015   0.48035   0.49462  -0.54103
O          O       0.56147   0.97176   0.58969  -0.53874
O          O       0.51966   0.88980   0.49462  -0.54090
O          O       0.43897   0.41041   0.09068  -0.53525
O          O       0.48004   0.37051   0.99490  -0.54233
O          O       0.97144   0.56103   0.09069  -0.53514
O          O       0.89046   0.51996   0.99490  -0.54401
O          O       0.58957   0.02854   0.09069  -0.53685
O          O       0.62950   0.10954   0.99490  -0.54424
O          O       0.56147   0.58971   0.58968  -0.53856
O          O       0.51965   0.62985   0.49462  -0.54108
O          O       0.02824   0.43853   0.58969  -0.53868
O          O       0.11020   0.48034   0.49462  -0.54093
O          O       0.41032   0.97178   0.58969  -0.53854
O          O       0.37015   0.88980   0.49463  -0.54093
O          O       0.02854   0.58957   0.90931  -0.53654
O          O       0.10954   0.62950   0.00509  -0.54277
O          O       0.41041   0.43897   0.90932  -0.53480
O          O       0.37051   0.48004   0.00510  -0.54269
O          O       0.56103   0.97144   0.90931  -0.53674
O          O       0.51996   0.89046   0.00510  -0.54437
O          O       0.97178   0.41031   0.41031  -0.53837
O          O       0.88980   0.37014   0.50537  -0.54132
O          O       0.58971   0.56147   0.41031  -0.53838
O          O       0.62985   0.51965   0.50537  -0.54109
O          O       0.43853   0.02824   0.41030  -0.53843
O          O       0.48034   0.11020   0.50537  -0.54122

