data_crystal

_audit_creation_method 'AiiDA-DDEC plugin'

_cell_length_a        19.86794
_cell_length_b        19.86779
_cell_length_c        19.86768

_cell_angle_alpha     108.49006
_cell_angle_beta     108.49655
_cell_angle_gamma     108.49644

_symmetry_space_group_name_Hall 'P 1'
_symmetry_space_group_name_H-M  'P 1'

loop_
_symmetry_equiv_pos_as_xyz
 'x,y,z'

loop_
_atom_site_label
_atom_site_type_symbol
_atom_site_fract_x
_atom_site_fract_y
_atom_site_fract_z
_atom_site_charge
Ag         Ag      0.37890   0.12627   0.18536   0.23553
Ag         Ag      0.70077   0.01077   0.28070   0.23999
Ag         Ag      0.18536   0.37889   0.12628   0.23545
Ag         Ag      0.28070   0.70077   0.01076   0.24008
Ag         Ag      0.12628   0.18535   0.37890   0.23549
Ag         Ag      0.01077   0.28069   0.70076   0.23992
Ag         Ag      0.62111   0.87373   0.81465   0.23554
Ag         Ag      0.29924   0.98923   0.71931   0.23992
Ag         Ag      0.81465   0.62111   0.87373   0.23545
Ag         Ag      0.71931   0.29923   0.98924   0.24005
Ag         Ag      0.87373   0.81464   0.62110   0.23548
Ag         Ag      0.98924   0.71931   0.29924   0.24005
H          H       0.75676   0.18600   0.34639   0.11452
H          H       0.78881   0.33070   0.40087   0.10540
H          H       0.67941   0.36857   0.36490   0.11209
H          H       0.53712   0.26238   0.27643   0.11124
H          H       0.20779   0.01427   0.06775   0.11042
H          H       0.06634   0.90758   0.97245   0.10096
H          H       0.03584   0.76414   0.91121   0.10066
H          H       0.14541   0.72618   0.94675   0.10977
H          H       0.40152   0.63910   0.03368   0.11481
H          H       0.51013   0.60116   0.07863   0.10441
H          H       0.65020   0.70761   0.17749   0.10019
H          H       0.68217   0.85155   0.22944   0.11405
H          H       0.35755   0.03741   0.27949   0.11394
H          H       0.32674   0.96431   0.35675   0.09920
H          H       0.24272   0.98646   0.42178   0.10349
H          H       0.18729   0.08180   0.40993   0.11008
H          H       0.34639   0.75676   0.18599   0.11433
H          H       0.40086   0.78879   0.33070   0.10530
H          H       0.36490   0.67939   0.36857   0.11224
H          H       0.27643   0.53711   0.26238   0.11141
H          H       0.06775   0.20779   0.01427   0.11064
H          H       0.97246   0.06634   0.90759   0.10127
H          H       0.91122   0.03585   0.76415   0.10076
H          H       0.94675   0.14540   0.72617   0.10962
H          H       0.03369   0.40153   0.63910   0.11480
H          H       0.07863   0.51013   0.60115   0.10444
H          H       0.17749   0.65020   0.70760   0.10011
H          H       0.22945   0.68216   0.85155   0.11390
H          H       0.27948   0.35755   0.03741   0.11385
H          H       0.35675   0.32675   0.96431   0.09903
H          H       0.42177   0.24272   0.98647   0.10341
H          H       0.40993   0.18728   0.08181   0.11014
H          H       0.18601   0.34639   0.75676   0.11442
H          H       0.33071   0.40087   0.78880   0.10536
H          H       0.36858   0.36490   0.67941   0.11228
H          H       0.26239   0.27643   0.53713   0.11136
H          H       0.01428   0.06775   0.20779   0.11067
H          H       0.90758   0.97245   0.06635   0.10134
H          H       0.76414   0.91122   0.03585   0.10074
H          H       0.72617   0.94675   0.14540   0.10962
H          H       0.63911   0.03368   0.40153   0.11474
H          H       0.60115   0.07862   0.51012   0.10440
H          H       0.70760   0.17748   0.65019   0.10019
H          H       0.85155   0.22944   0.68217   0.11396
H          H       0.03741   0.27948   0.35755   0.11400
H          H       0.96432   0.35675   0.32674   0.09907
H          H       0.98647   0.42177   0.24271   0.10330
H          H       0.08181   0.40993   0.18728   0.11012
H          H       0.24325   0.81400   0.65361   0.11420
H          H       0.21120   0.66930   0.59914   0.10517
H          H       0.32060   0.63143   0.63510   0.11223
H          H       0.46289   0.73762   0.72357   0.11164
H          H       0.79222   0.98573   0.93225   0.11069
H          H       0.93366   0.09242   0.02755   0.10114
H          H       0.96416   0.23586   0.08879   0.10091
H          H       0.85460   0.27382   0.05325   0.10970
H          H       0.59848   0.36090   0.96632   0.11495
H          H       0.48987   0.39884   0.92137   0.10422
H          H       0.34981   0.29239   0.82252   0.09997
H          H       0.31784   0.14845   0.77056   0.11376
H          H       0.64246   0.96259   0.72052   0.11370
H          H       0.67326   0.03569   0.64325   0.09899
H          H       0.75729   0.01354   0.57822   0.10344
H          H       0.81272   0.91820   0.59007   0.11022
H          H       0.65361   0.24324   0.81401   0.11450
H          H       0.59914   0.21121   0.66931   0.10532
H          H       0.63511   0.32060   0.63143   0.11217
H          H       0.72358   0.46289   0.73762   0.11133
H          H       0.93225   0.79221   0.98573   0.11057
H          H       0.02755   0.93366   0.09241   0.10121
H          H       0.08878   0.96415   0.23585   0.10077
H          H       0.05325   0.85460   0.27383   0.10971
H          H       0.96632   0.59847   0.36090   0.11485
H          H       0.92138   0.48987   0.39885   0.10451
H          H       0.82252   0.34980   0.29240   0.10014
H          H       0.77056   0.31784   0.14845   0.11386
H          H       0.72052   0.64245   0.96259   0.11415
H          H       0.64326   0.67325   0.03569   0.09910
H          H       0.57824   0.75728   0.01353   0.10314
H          H       0.59007   0.81272   0.91820   0.10980
H          H       0.81400   0.65361   0.24324   0.11443
H          H       0.66929   0.59913   0.21120   0.10529
H          H       0.63142   0.63510   0.32060   0.11204
H          H       0.73762   0.72357   0.46288   0.11121
H          H       0.98573   0.93224   0.79221   0.11037
H          H       0.09242   0.02754   0.93365   0.10125
H          H       0.23587   0.08878   0.96415   0.10087
H          H       0.27383   0.05325   0.85460   0.10983
H          H       0.36090   0.96632   0.59847   0.11490
H          H       0.39886   0.92138   0.48988   0.10470
H          H       0.29240   0.82252   0.34981   0.10019
H          H       0.14845   0.77056   0.31784   0.11383
H          H       0.96259   0.72052   0.64245   0.11387
H          H       0.03568   0.64325   0.67326   0.09936
H          H       0.01353   0.57823   0.75729   0.10361
H          H       0.91820   0.59007   0.81272   0.11018
C          C       0.47368   0.02984   0.18127   0.09050
C          C       0.53647   0.00855   0.20144   0.08798
C          C       0.62995   0.14336   0.28036   0.15893
C          C       0.70989   0.20405   0.33141  -0.16798
C          C       0.72712   0.28416   0.36140  -0.08739
C          C       0.66516   0.30564   0.34151  -0.08391
C          C       0.58591   0.24690   0.29213  -0.17001
C          C       0.56679   0.16516   0.26072   0.15230
C          C       0.37367   0.88552   0.09502   0.08859
C          C       0.39122   0.96753   0.12766   0.08985
C          C       0.25575   0.93076   0.06022   0.15995
C          C       0.19280   0.95107   0.04065  -0.16838
C          C       0.11459   0.89154   0.98792  -0.08129
C          C       0.09709   0.81034   0.95351  -0.06833
C          C       0.15788   0.78876   0.97273  -0.16665
C          C       0.23779   0.84805   0.02639   0.15392
C          C       0.51816   0.92453   0.16991   0.08876
C          C       0.43797   0.86370   0.11578   0.08975
C          C       0.47980   0.76566   0.10694   0.15238
C          C       0.46312   0.68453   0.07644  -0.16740
C          C       0.52388   0.66396   0.10169  -0.09091
C          C       0.60289   0.72389   0.15732  -0.08342
C          C       0.62112   0.80431   0.18697  -0.17009
C          C       0.56043   0.82665   0.16295   0.15129
C          C       0.22576   0.20093   0.28758   0.08814
C          C       0.27487   0.18847   0.25120   0.08803
C          C       0.29106   0.10100   0.30211   0.15756
C          C       0.32129   0.04685   0.30916  -0.16444
C          C       0.30375   0.00635   0.35178  -0.08289
C          C       0.25575   0.01878   0.38862  -0.07480
C          C       0.22514   0.07173   0.38241  -0.17197
C          C       0.24182   0.11337   0.33916   0.14633
C          C       0.18127   0.47368   0.02985   0.09037
C          C       0.20144   0.53647   0.00854   0.08794
C          C       0.28036   0.62995   0.14336   0.15821
C          C       0.33141   0.70989   0.20404  -0.16807
C          C       0.36139   0.72711   0.28415  -0.08730
C          C       0.34151   0.66515   0.30564  -0.08404
C          C       0.29212   0.58591   0.24690  -0.17078
C          C       0.26073   0.56680   0.16516   0.15469
C          C       0.09503   0.37367   0.88553   0.08861
C          C       0.12766   0.39122   0.96753   0.08965
C          C       0.06022   0.25575   0.93076   0.15732
C          C       0.04066   0.19280   0.95107  -0.16754
C          C       0.98793   0.11458   0.89155  -0.08130
C          C       0.95351   0.09709   0.81035  -0.06823
C          C       0.97273   0.15787   0.78876  -0.16678
C          C       0.02639   0.23779   0.84805   0.15460
C          C       0.16991   0.51816   0.92453   0.08932
C          C       0.11579   0.43797   0.86371   0.08961
C          C       0.10695   0.47980   0.76566   0.15239
C          C       0.07644   0.46312   0.68453  -0.16754
C          C       0.10169   0.52389   0.66396  -0.09099
C          C       0.15732   0.60289   0.72388  -0.08355
C          C       0.18697   0.62112   0.80430  -0.17002
C          C       0.16296   0.56043   0.82665   0.15140
C          C       0.28757   0.22575   0.20093   0.08834
C          C       0.25120   0.27487   0.18847   0.08797
C          C       0.30211   0.29106   0.10100   0.15750
C          C       0.30916   0.32129   0.04685  -0.16445
C          C       0.35177   0.30375   0.00634  -0.08281
C          C       0.38861   0.25575   0.01879  -0.07460
C          C       0.38240   0.22513   0.07174  -0.17200
C          C       0.33915   0.24182   0.11337   0.14635
C          C       0.02985   0.18127   0.47368   0.09033
C          C       0.00855   0.20144   0.53647   0.08790
C          C       0.14337   0.28036   0.62995   0.15826
C          C       0.20406   0.33141   0.70989  -0.16827
C          C       0.28417   0.36140   0.72712  -0.08712
C          C       0.30565   0.34151   0.66516  -0.08407
C          C       0.24691   0.29213   0.58592  -0.17071
C          C       0.16517   0.26073   0.56680   0.15486
C          C       0.88552   0.09502   0.37367   0.08857
C          C       0.96753   0.12766   0.39122   0.08972
C          C       0.93076   0.06022   0.25576   0.16018
C          C       0.95108   0.04066   0.19281  -0.16859
C          C       0.89155   0.98793   0.11460  -0.08133
C          C       0.81035   0.95351   0.09709  -0.06819
C          C       0.78876   0.97272   0.15788  -0.16690
C          C       0.84805   0.02639   0.23780   0.15374
C          C       0.92454   0.16990   0.51816   0.08897
C          C       0.86371   0.11578   0.43797   0.08977
C          C       0.76567   0.10694   0.47980   0.15220
C          C       0.68454   0.07644   0.46312  -0.16725
C          C       0.66396   0.10169   0.52388  -0.09111
C          C       0.72389   0.15731   0.60288  -0.08366
C          C       0.80431   0.18697   0.62112  -0.17003
C          C       0.82666   0.16295   0.56043   0.15142
C          C       0.20093   0.28757   0.22575   0.08825
C          C       0.18847   0.25119   0.27487   0.08792
C          C       0.10100   0.30210   0.29106   0.15764
C          C       0.04685   0.30916   0.32129  -0.16457
C          C       0.00636   0.35177   0.30375  -0.08287
C          C       0.01880   0.38861   0.25574  -0.07470
C          C       0.07174   0.38240   0.22513  -0.17204
C          C       0.11337   0.33915   0.24182   0.14632
C          C       0.52632   0.97015   0.81873   0.09031
C          C       0.46354   0.99145   0.79856   0.08800
C          C       0.37006   0.85664   0.71964   0.15902
C          C       0.29012   0.79595   0.66859  -0.16818
C          C       0.27288   0.71584   0.63860  -0.08729
C          C       0.33485   0.69436   0.65849  -0.08391
C          C       0.41409   0.75310   0.70788  -0.17007
C          C       0.43321   0.83484   0.73928   0.15235
C          C       0.62634   0.11448   0.90498   0.08840
C          C       0.60878   0.03247   0.87234   0.08979
C          C       0.74425   0.06924   0.93978   0.16023
C          C       0.80721   0.04893   0.95935  -0.16861
C          C       0.88542   0.10846   0.01208  -0.08100
C          C       0.90292   0.18966   0.04650  -0.06839
C          C       0.84213   0.21124   0.02728  -0.16679
C          C       0.76221   0.15195   0.97361   0.15383
C          C       0.48185   0.07546   0.83010   0.08909
C          C       0.56203   0.13629   0.88422   0.08969
C          C       0.52021   0.23434   0.89306   0.15231
C          C       0.53689   0.31547   0.92356  -0.16725
C          C       0.47612   0.33604   0.89831  -0.09088
C          C       0.39712   0.27611   0.84269  -0.08361
C          C       0.37888   0.19569   0.81303  -0.17005
C          C       0.43958   0.17335   0.83705   0.15130
C          C       0.77425   0.79907   0.71243   0.08776
C          C       0.72514   0.81153   0.74881   0.08842
C          C       0.70894   0.89900   0.69789   0.15796
C          C       0.67872   0.95315   0.69084  -0.16453
C          C       0.69626   0.99365   0.64822  -0.08316
C          C       0.74426   0.98122   0.61138  -0.07475
C          C       0.77487   0.92827   0.61760  -0.17184
C          C       0.75818   0.88663   0.66085   0.14610
C          C       0.81874   0.52632   0.97016   0.09012
C          C       0.79857   0.46353   0.99146   0.08818
C          C       0.71964   0.37005   0.85664   0.15822
C          C       0.66860   0.29011   0.79596  -0.16815
C          C       0.63861   0.27289   0.71585  -0.08734
C          C       0.65850   0.33485   0.69436  -0.08409
C          C       0.70788   0.41409   0.75310  -0.17101
C          C       0.73928   0.43320   0.83484   0.15491
C          C       0.90498   0.62633   0.11448   0.08858
C          C       0.87234   0.60878   0.03247   0.08985
C          C       0.93979   0.74425   0.06924   0.16023
C          C       0.95935   0.80720   0.04893  -0.16862
C          C       0.01208   0.88541   0.10845  -0.08135
C          C       0.04649   0.90291   0.18965  -0.06817
C          C       0.02728   0.84213   0.21124  -0.16678
C          C       0.97361   0.76221   0.15196   0.15386
C          C       0.83010   0.48184   0.07547   0.08921
C          C       0.88422   0.56203   0.13630   0.08959
C          C       0.89306   0.52020   0.23434   0.15249
C          C       0.92356   0.53688   0.31547  -0.16747
C          C       0.89831   0.47611   0.33605  -0.09099
C          C       0.84269   0.39711   0.27612  -0.08335
C          C       0.81303   0.37888   0.19570  -0.17021
C          C       0.83705   0.43957   0.17335   0.15131
C          C       0.71243   0.77424   0.79907   0.08814
C          C       0.74881   0.72513   0.81153   0.08812
C          C       0.69790   0.70894   0.89901   0.15748
C          C       0.69085   0.67871   0.95315  -0.16436
C          C       0.64823   0.69625   0.99366  -0.08272
C          C       0.61140   0.74425   0.98121  -0.07472
C          C       0.61760   0.77487   0.92827  -0.17200
C          C       0.66085   0.75818   0.88663   0.14639
C          C       0.97016   0.81873   0.52632   0.09031
C          C       0.99146   0.79856   0.46353   0.08799
C          C       0.85664   0.71964   0.37005   0.15810
C          C       0.79595   0.66859   0.29011  -0.16795
C          C       0.71584   0.63860   0.27288  -0.08744
C          C       0.69435   0.65849   0.33484  -0.08413
C          C       0.75310   0.70787   0.41408  -0.17072
C          C       0.83484   0.73927   0.43320   0.15485
C          C       0.11448   0.90498   0.62634   0.08855
C          C       0.03247   0.87234   0.60878   0.09000
C          C       0.06924   0.93978   0.74425   0.16035
C          C       0.04893   0.95934   0.80720  -0.16852
C          C       0.10846   0.01207   0.88541  -0.08144
C          C       0.18966   0.04649   0.90291  -0.06809
C          C       0.21125   0.02727   0.84213  -0.16680
C          C       0.15196   0.97361   0.76221   0.15362
C          C       0.07547   0.83010   0.48185   0.08898
C          C       0.13630   0.88422   0.56203   0.08944
C          C       0.23434   0.89306   0.52020   0.15223
C          C       0.31547   0.92356   0.53688  -0.16727
C          C       0.33605   0.89831   0.47612  -0.09116
C          C       0.27611   0.84269   0.39712  -0.08334
C          C       0.19570   0.81303   0.37888  -0.17009
C          C       0.17335   0.83705   0.43957   0.15132
C          C       0.79907   0.71243   0.77425   0.08794
C          C       0.81153   0.74881   0.72514   0.08824
C          C       0.89901   0.69789   0.70894   0.15763
C          C       0.95315   0.69084   0.67871  -0.16432
C          C       0.99365   0.64823   0.69626  -0.08306
C          C       0.98121   0.61139   0.74426  -0.07465
C          C       0.92827   0.61760   0.77487  -0.17200
C          C       0.88664   0.66085   0.75818   0.14630
N          N       0.61320   0.06433   0.25017  -0.27263
N          N       0.48837   0.10683   0.21131  -0.26329
N          N       0.33338   0.98966   0.11081  -0.26725
N          N       0.29807   0.82681   0.04568  -0.25815
N          N       0.41916   0.78570   0.08375  -0.27758
N          N       0.57847   0.90631   0.19335  -0.26801
N          N       0.30792   0.14038   0.25931  -0.27390
N          N       0.21002   0.16443   0.33142  -0.26421
N          N       0.25017   0.61320   0.06432  -0.27273
N          N       0.21131   0.48838   0.10683  -0.26386
N          N       0.11081   0.33337   0.98966  -0.26611
N          N       0.04569   0.29808   0.82682  -0.25805
N          N       0.08375   0.41916   0.78570  -0.27752
N          N       0.19336   0.57846   0.90631  -0.26836
N          N       0.25931   0.30791   0.14037  -0.27400
N          N       0.33141   0.21002   0.16444  -0.26427
N          N       0.06433   0.25017   0.61320  -0.27276
N          N       0.10683   0.21131   0.48838  -0.26386
N          N       0.98966   0.11081   0.33338  -0.26714
N          N       0.82682   0.04568   0.29807  -0.25820
N          N       0.78570   0.08375   0.41917  -0.27756
N          N       0.90632   0.19335   0.57846  -0.26813
N          N       0.14038   0.25931   0.30792  -0.27395
N          N       0.16443   0.33141   0.21002  -0.26422
N          N       0.38681   0.93567   0.74983  -0.27308
N          N       0.51163   0.89317   0.78870  -0.26282
N          N       0.66663   0.01034   0.88919  -0.26712
N          N       0.70193   0.17318   0.95432  -0.25797
N          N       0.58084   0.21430   0.91626  -0.27752
N          N       0.42154   0.09369   0.80665  -0.26826
N          N       0.69209   0.85962   0.74069  -0.27453
N          N       0.78998   0.83557   0.66859  -0.26387
N          N       0.74984   0.38680   0.93568  -0.27268
N          N       0.78870   0.51162   0.89317  -0.26392
N          N       0.88919   0.66663   0.01034  -0.26718
N          N       0.95432   0.70192   0.17319  -0.25825
N          N       0.91626   0.58084   0.21431  -0.27747
N          N       0.80665   0.42154   0.09369  -0.26827
N          N       0.74069   0.69208   0.85963  -0.27375
N          N       0.66860   0.78998   0.83557  -0.26456
N          N       0.93568   0.74983   0.38680  -0.27269
N          N       0.89317   0.78869   0.51163  -0.26400
N          N       0.01034   0.88918   0.66662  -0.26772
N          N       0.17319   0.95432   0.70193  -0.25793
N          N       0.21431   0.91625   0.58084  -0.27721
N          N       0.09369   0.80665   0.42154  -0.26812
N          N       0.85963   0.74069   0.69209  -0.27410
N          N       0.83557   0.66859   0.78998  -0.26400

