data_crystal

_audit_creation_method 'AiiDA-DDEC plugin'

_cell_length_a        11.01260
_cell_length_b        17.28769
_cell_length_c        29.75562

_cell_angle_alpha     86.92469
_cell_angle_beta     79.43655
_cell_angle_gamma     73.89814

_symmetry_space_group_name_Hall 'P 1'
_symmetry_space_group_name_H-M  'P 1'

loop_
_symmetry_equiv_pos_as_xyz
 'x,y,z'

loop_
_atom_site_label
_atom_site_type_symbol
_atom_site_fract_x
_atom_site_fract_y
_atom_site_fract_z
_atom_site_charge
La         La      0.24250   0.28201   0.62654   1.97278
La         La      0.55901   0.38851   0.97077   1.97798
La         La      0.11554   0.49914   0.68624   2.00281
La         La      0.54446   0.10952   0.96804   2.01888
La         La      0.10631   0.80119   0.70634   1.99611
La         La      0.19054   0.01453   0.64839   2.05009
La         La      0.75750   0.71799   0.37346   1.97283
La         La      0.44098   0.61150   0.02922   1.97781
La         La      0.88445   0.50086   0.31375   2.00279
La         La      0.45553   0.89049   0.03196   2.01897
La         La      0.89368   0.19881   0.29366   1.99630
La         La      0.80945   0.98547   0.35160   2.05008
H          H      -0.00187   0.26433   0.93790   0.11926
H          H       0.20292   0.21021   0.96865   0.10867
H          H       0.04545   0.03305   0.04642   0.12467
H          H       0.84293   0.08428   0.01392   0.11214
H          H       0.47246   0.00236   0.69748   0.11237
H          H       0.66757   0.93940   0.73274   0.12575
H          H       0.88075   0.07562   0.64124   0.10203
H          H       0.68547   0.14010   0.60732   0.12313
H          H       0.67763   0.62016   0.71790   0.11778
H          H       0.46607   0.68459   0.69298   0.11667
H          H       0.60995   0.88083   0.63387   0.11994
H          H       0.81849   0.81899   0.66077   0.10778
H          H       0.21463   0.84567   0.83193   0.11572
H          H       0.28383   0.86058   0.90595   0.11419
H          H       0.44267   0.05138   0.84728   0.11477
H          H       0.37148   0.03744   0.77351   0.11258
H          H       0.06097   0.23069   0.41568   0.11815
H          H       0.13948   0.24982   0.48713   0.11929
H          H       0.95648   0.07672   0.55675   0.10989
H          H       0.87774   0.05779   0.48534   0.12011
H          H       0.61084   0.27537   0.63118   0.11456
H          H       0.83094   0.25227   0.65003   0.11547
H          H       0.74632   0.50360   0.68120   0.11175
H          H       0.52584   0.52645   0.66238   0.12185
H          H       0.58816   0.29242   0.13607   0.11672
H          H       0.69530   0.51256   0.10177   0.11445
H          H       0.66500   0.28660   0.21053   0.11379
H          H       0.78148   0.50281   0.17476   0.11746
H          H       0.45839   0.38892   0.82901   0.11947
H          H       0.37866   0.39506   0.75503   0.11633
H          H       0.24843   0.18398   0.79451   0.11728
H          H       0.31902   0.18274   0.86987   0.11485
H          H       0.03160   0.61931   0.53449   0.11895
H          H       0.95896   0.63163   0.45903   0.11126
H          H       0.06383   0.61660   0.02385   0.11402
H          H       0.84441   0.63584   0.00517   0.11280
H          H       0.03608   0.19297   0.68970   0.39936
H          H       0.14393   0.15436   0.71700   0.40556
H          H       0.39384   0.28157   0.01723   0.42908
H          H       0.51594   0.25799   0.03978   0.42886
H          H       0.00186   0.73567   0.06210   0.11895
H          H       0.79707   0.78980   0.03134   0.10871
H          H       0.95454   0.96695   0.95358   0.12492
H          H       0.15706   0.91572   0.98607   0.11210
H          H       0.52753   0.99765   0.30252   0.11241
H          H       0.33242   0.06061   0.26726   0.12614
H          H       0.11924   0.92438   0.35876   0.10211
H          H       0.31452   0.85991   0.39268   0.12271
H          H       0.32236   0.37984   0.28209   0.11812
H          H       0.53392   0.31541   0.30702   0.11665
H          H       0.39004   0.11918   0.36613   0.11970
H          H       0.18150   0.18101   0.33922   0.10783
H          H       0.78536   0.15434   0.16806   0.11577
H          H       0.71617   0.13943   0.09404   0.11442
H          H       0.55733   0.94862   0.15271   0.11477
H          H       0.62851   0.96257   0.22649   0.11246
H          H       0.93902   0.76932   0.58432   0.11787
H          H       0.86051   0.75018   0.51286   0.11950
H          H       0.04351   0.92328   0.44324   0.11016
H          H       0.12225   0.94221   0.51465   0.12008
H          H       0.38915   0.72464   0.36882   0.11448
H          H       0.16905   0.74773   0.34997   0.11564
H          H       0.25367   0.49641   0.31879   0.11176
H          H       0.47415   0.47356   0.33761   0.12169
H          H       0.41183   0.70758   0.86393   0.11662
H          H       0.30469   0.48744   0.89823   0.11416
H          H       0.33499   0.71340   0.78946   0.11411
H          H       0.21851   0.49720   0.82524   0.11761
H          H       0.54160   0.61109   0.17099   0.11953
H          H       0.62133   0.60494   0.24497   0.11605
H          H       0.75156   0.81602   0.20549   0.11736
H          H       0.68097   0.81727   0.13012   0.11513
H          H       0.96839   0.38069   0.46550   0.11902
H          H       0.04103   0.36837   0.54097   0.11099
H          H       0.93616   0.38340   0.97614   0.11407
H          H       0.15558   0.36416   0.99483   0.11252
H          H       0.96391   0.80703   0.31030   0.39899
H          H       0.85606   0.84564   0.28299   0.40622
H          H       0.60615   0.71844   0.98277   0.42874
H          H       0.48405   0.74202   0.96022   0.42921
C          C       0.90899   0.17767   0.97422  -0.03357
C          C       0.00946   0.21412   0.96186  -0.10230
C          C       0.12253   0.18445   0.97920  -0.09717
C          C       0.13520   0.11913   0.00984  -0.03761
C          C       0.03368   0.08373   0.02280  -0.08887
C          C       0.92142   0.11218   0.00467  -0.09935
C          C       0.78884   0.20932   0.95508   0.64265
C          C       0.25998   0.08421   0.02598   0.62616
C          C       0.56765   0.07519   0.65048  -0.02643
C          C       0.56174   0.01874   0.68591  -0.09303
C          C       0.66973   0.98401   0.70562  -0.08411
C          C       0.78546   0.00386   0.68953  -0.02832
C          C       0.79112   0.06045   0.65406  -0.09760
C          C       0.68271   0.09626   0.63484  -0.09680
C          C       0.45132   0.11575   0.63037   0.61779
C          C       0.90299   0.95848   0.70766   0.60057
C          C       0.66176   0.67698   0.69934  -0.10009
C          C       0.54477   0.71253   0.68537  -0.09682
C          C       0.52637   0.78633   0.66175  -0.03647
C          C       0.62613   0.82380   0.65217  -0.08790
C          C       0.74178   0.78937   0.66717  -0.09717
C          C       0.76032   0.71566   0.69073  -0.03484
C          C       0.39803   0.82885   0.65016   0.63150
C          C       0.88536   0.67872   0.70617   0.64665
C          C       0.26460   0.89040   0.83568  -0.09337
C          C       0.30323   0.89858   0.87672  -0.09548
C          C       0.36690   0.95711   0.88098  -0.03265
C          C       0.39217   0.00689   0.84363  -0.09331
C          C       0.35287  -0.00098   0.80264  -0.09803
C          C       0.28880   0.94068   0.79845  -0.03348
C          C       0.40582   0.96678   0.92544   0.63255
C          C       0.24637   0.93165   0.75462   0.63309
C          C       0.03807   0.19764   0.44675  -0.09158
C          C       0.08114   0.20861   0.48645  -0.08864
C          C       0.05206   0.16483   0.52618  -0.04972
C          C       0.97761   0.11083   0.52593  -0.09497
C          C       0.93433   0.09997   0.48623  -0.09093
C          C       0.96572   0.14243   0.44625  -0.03095
C          C       0.10345   0.17413   0.56796   0.63297
C          C       0.92604   0.12695   0.40278   0.63378
C          C       0.64180   0.32479   0.64210  -0.09327
C          C       0.76379   0.31202   0.65287  -0.09164
C          C       0.80133   0.37646   0.66748  -0.03934
C          C       0.71520   0.45397   0.67069  -0.09374
C          C       0.59314   0.46674   0.65999  -0.09080
C          C       0.55550   0.40213   0.64561  -0.03082
C          C       0.42298   0.41439   0.63543   0.62823
C          C       0.93299   0.36452   0.67803   0.62914
C          C       0.62890   0.33884   0.14506  -0.09259
C          C       0.63620   0.40318   0.11470  -0.03284
C          C       0.68979   0.46308   0.12553  -0.09571
C          C       0.67255   0.33527   0.18634  -0.09737
C          C       0.59310   0.40520   0.07004   0.61998
C          C       0.77558   0.39035   0.24133   0.63859
C          C       0.73724   0.45791   0.16624  -0.08717
C          C       0.72768   0.39465   0.19706  -0.04033
C          C       0.43771   0.28263   0.89883   0.63100
C          C       0.39271   0.28585   0.85394  -0.03870
C          C       0.41062   0.34524   0.82137  -0.08603
C          C       0.36667   0.34832   0.78009  -0.09328
C          C       0.30838   0.28996   0.77030  -0.03390
C          C       0.29287   0.22931   0.80240  -0.09083
C          C       0.33294   0.22817   0.84423  -0.09733
C          C       0.26691   0.29152   0.72536   0.61134
C          C       0.01712   0.56750   0.51923  -0.08606
C          C       0.97661   0.57426   0.47709  -0.09435
C          C       0.04085   0.49327   0.54246  -0.02917
C          C       0.08122   0.48772   0.58808   0.61448
C          C       0.03444   0.56605   0.01365  -0.09281
C          C       0.91300   0.57666   0.00298  -0.09242
C          C       0.25331   0.47908   0.02137   0.62902
C          C       0.12213   0.48928   0.01087  -0.03723
C          C       0.09101   0.82233   0.02577  -0.03385
C          C       0.99053   0.78588   0.03814  -0.10252
C          C       0.87746   0.81556   0.02079  -0.09695
C          C       0.86479   0.88088   0.99015  -0.03761
C          C       0.96631   0.91627   0.97720  -0.08876
C          C       0.07857   0.88783   0.99533  -0.09921
C          C       0.21115   0.79068   0.04492   0.64311
C          C       0.74001   0.91580   0.97402   0.62594
C          C       0.43234   0.92481   0.34952  -0.02680
C          C       0.43825   0.98126   0.31409  -0.09308
C          C       0.33026   0.01599   0.29438  -0.08408
C          C       0.21453   0.99614   0.31046  -0.02824
C          C       0.20887   0.93955   0.34594  -0.09785
C          C       0.31728   0.90375   0.36515  -0.09644
C          C       0.54867   0.88425   0.36963   0.61822
C          C       0.09700   0.04152   0.29234   0.60020
C          C       0.33823   0.32302   0.30066  -0.09994
C          C       0.45522   0.28748   0.31463  -0.09693
C          C       0.47362   0.21368   0.33824  -0.03682
C          C       0.37386   0.17620   0.34782  -0.08811
C          C       0.25821   0.21063   0.33282  -0.09699
C          C       0.23967   0.28435   0.30927  -0.03484
C          C       0.60196   0.17115   0.34983   0.63228
C          C       0.11464   0.32129   0.29383   0.64642
C          C       0.73539   0.10960   0.16432  -0.09395
C          C       0.69676   0.10142   0.12328  -0.09491
C          C       0.63309   0.04290   0.11902  -0.03271
C          C       0.60782   0.99312   0.15637  -0.09310
C          C       0.64712   0.00099   0.19736  -0.09832
C          C       0.71119   0.05932   0.20154  -0.03334
C          C       0.59417   0.03322   0.07456   0.63219
C          C       0.75363   0.06836   0.24538   0.63314
C          C       0.96192   0.80236   0.55325  -0.09157
C          C       0.91885   0.79139   0.51355  -0.08881
C          C       0.94793   0.83518   0.47382  -0.04940
C          C       0.02238   0.88918   0.47406  -0.09518
C          C       0.06566   0.90004   0.51376  -0.09100
C          C       0.03427   0.85758   0.55374  -0.03099
C          C       0.89654   0.82588   0.43204   0.63261
C          C       0.07395   0.87305   0.59722   0.63372
C          C       0.35819   0.67521   0.35789  -0.09362
C          C       0.23620   0.68798   0.34713  -0.09117
C          C       0.19866   0.62354   0.33251  -0.03921
C          C       0.28479   0.54604   0.32931  -0.09379
C          C       0.40685   0.53326   0.34001  -0.09093
C          C       0.44449   0.59787   0.35438  -0.03089
C          C       0.57701   0.58562   0.36456   0.62867
C          C       0.06700   0.63549   0.32197   0.62899
C          C       0.37109   0.66117   0.85494  -0.09264
C          C       0.36379   0.59682   0.88530  -0.03285
C          C       0.31020   0.53692   0.87446  -0.09599
C          C       0.32744   0.66473   0.81366  -0.09740
C          C       0.40689   0.59480   0.92995   0.62019
C          C       0.22441   0.60965   0.75866   0.63865
C          C       0.26275   0.54209   0.83376  -0.08697
C          C       0.27231   0.60536   0.80294  -0.04031
C          C       0.56228   0.71737   0.10117   0.63083
C          C       0.60728   0.71415   0.14606  -0.03880
C          C       0.58937   0.65476   0.17862  -0.08569
C          C       0.63332   0.65168   0.21991  -0.09343
C          C       0.69161   0.71004   0.22970  -0.03390
C          C       0.70712   0.77069   0.19759  -0.09121
C          C       0.66705   0.77184   0.15576  -0.09711
C          C       0.73308   0.70849   0.27464   0.61148
C          C       0.98287   0.43250   0.48077  -0.08598
C          C       0.02338   0.42575   0.52290  -0.09446
C          C       0.95914   0.50674   0.45754  -0.02915
C          C       0.91877   0.51229   0.41191   0.61432
C          C       0.96555   0.43396   0.98635  -0.09283
C          C       0.08700   0.42335   0.99701  -0.09244
C          C       0.74668   0.52092   0.97862   0.62891
C          C       0.87787   0.51072   0.98913  -0.03711
O          O       0.72801   0.16007   0.94745  -0.64742
O          O       0.75231   0.28502   0.94749  -0.64637
O          O       0.34329   0.12469   0.01806  -0.66911
O          O       0.27895   0.01557   0.04536  -0.63971
O          O       0.44965   0.18193   0.60884  -0.61835
O          O       0.35537   0.08606   0.63652  -0.68983
O          O       0.01156   0.97269   0.69104  -0.71036
O          O       0.89651   0.90195   0.73628  -0.58683
O          O       0.38208   0.89982   0.63375  -0.63894
O          O       0.30878   0.79316   0.65903  -0.66369
O          O       0.92051   0.60219   0.71112  -0.65056
O          O       0.95183   0.72492   0.71330  -0.66504
O          O       0.25548   0.98431   0.72348  -0.62848
O          O       0.44889   0.02688   0.92983  -0.67936
O          O       0.39212   0.91482   0.95667  -0.64156
O          O       0.87290   0.07038   0.40233  -0.65531
O          O       0.95116   0.17138   0.36835  -0.65053
O          O       0.09074   0.12563   0.60136  -0.68150
O          O       0.15877   0.23019   0.56825  -0.64405
O          O       0.33843   0.48034   0.64793  -0.64069
O          O       0.40072   0.35686   0.61587  -0.64197
O          O       0.01761   0.29682   0.66790  -0.65675
O          O       0.95706   0.42306   0.69563  -0.64168
O          O       0.60072   0.33921   0.05124  -0.61096
O          O       0.55293   0.47303   0.04998  -0.70743
O          O       0.77602   0.32789   0.26621  -0.66988
O          O       0.81191   0.44978   0.25221  -0.65392
O          O       0.47920   0.34038   0.90899  -0.64854
O          O       0.43070   0.22209   0.92463  -0.65973
O          O       0.26661   0.22656   0.70706  -0.60307
O          O       0.23623   0.35949   0.70425  -0.71235
O          O       0.07258   0.55166   0.60913  -0.58946
O          O       0.12139   0.41771   0.60650  -0.71863
O          O       0.33721   0.41117   0.01152  -0.66672
O          O       0.27584   0.53850   0.03852  -0.63588
O          O       0.20418   0.87083   0.75087  -0.67430
O          O       0.08024   0.14080   0.70217  -0.80660
O          O       0.48556   0.25367   0.01126  -0.81225
O          O       0.27198   0.83994   0.05254  -0.64776
O          O       0.24768   0.71498   0.05251  -0.64674
O          O       0.65670   0.87532   0.98194  -0.66888
O          O       0.72104   0.98443   0.95464  -0.63933
O          O       0.55034   0.81807   0.39116  -0.61868
O          O       0.64462   0.91394   0.36348  -0.69010
O          O       0.98843   0.02731   0.30896  -0.71010
O          O       0.10348   0.09805   0.26372  -0.58640
O          O       0.61791   0.10019   0.36625  -0.63958
O          O       0.69121   0.20685   0.34097  -0.66397
O          O       0.07948   0.39782   0.28887  -0.65022
O          O       0.04816   0.27509   0.28670  -0.66485
O          O       0.74451   0.01569   0.27652  -0.62882
O          O       0.55110   0.97312   0.07017  -0.67931
O          O       0.60788   0.08518   0.04333  -0.64116
O          O       0.12709   0.92963   0.59767  -0.65520
O          O       0.04884   0.82862   0.63164  -0.65066
O          O       0.90925   0.87437   0.39863  -0.68108
O          O       0.84122   0.76982   0.43175  -0.64406
O          O       0.66156   0.51966   0.35207  -0.64115
O          O       0.59927   0.64314   0.38413  -0.64224
O          O       0.98238   0.70318   0.33210  -0.65645
O          O       0.04293   0.57694   0.30437  -0.64150
O          O       0.39927   0.66079   0.94875  -0.61088
O          O       0.44706   0.52698   0.95002  -0.70788
O          O       0.22397   0.67212   0.73379  -0.66968
O          O       0.18808   0.55022   0.74778  -0.65393
O          O       0.52079   0.65963   0.09100  -0.64851
O          O       0.56929   0.77792   0.07536  -0.65948
O          O       0.73338   0.77345   0.29293  -0.60300
O          O       0.76376   0.64051   0.29575  -0.71266
O          O       0.92741   0.44835   0.39087  -0.58946
O          O       0.87860   0.58230   0.39350  -0.71837
O          O       0.66278   0.58883   0.98848  -0.66637
O          O       0.72415   0.46150   0.96147  -0.63580
O          O       0.79581   0.12918   0.24912  -0.67422
O          O       0.91975   0.85920   0.29783  -0.80689
O          O       0.51444   0.74634   0.98874  -0.81217

