data_crystal

_audit_creation_method 'AiiDA-DDEC plugin'

_cell_length_a        16.54520
_cell_length_b        16.56077
_cell_length_c        25.90120

_cell_angle_alpha     90.00000
_cell_angle_beta     90.00000
_cell_angle_gamma     120.13974

_symmetry_space_group_name_Hall 'P 1'
_symmetry_space_group_name_H-M  'P 1'

loop_
_symmetry_equiv_pos_as_xyz
 'x,y,z'

loop_
_atom_site_label
_atom_site_type_symbol
_atom_site_fract_x
_atom_site_fract_y
_atom_site_fract_z
_atom_site_charge
Zn         Zn      0.71084   0.42477  -0.00068   0.74398
Zn         Zn      0.57501   0.28901   0.66718   0.74358
Zn         Zn      0.71130   0.28645   0.33385   0.74331
Zn         Zn      0.28916   0.57523  -0.00068   0.74400
Zn         Zn      0.42499   0.71099   0.66718   0.74351
Zn         Zn      0.28869   0.71355   0.33385   0.74324
H          H       0.39580   0.21682   0.08446   0.11099
H          H       0.30905   0.78777   0.03154   0.11370
H          H       0.47023   0.91690   0.03961   0.10493
H          H       0.89709   0.53330   0.94145   0.08894
H          H       0.06442   0.64005   0.96404   0.13128
H          H       0.98035   0.60546   0.12426   0.15553
H          H       0.41275   0.98106   0.19113   0.10477
H          H       0.24937   0.84631   0.18450   0.11522
H          H       0.81893   0.49887   0.09570   0.10208
H          H       0.17529   0.71072   0.02761   0.28915
H          H       0.78260   0.17933   0.75068   0.11055
H          H       0.21183   0.52092   0.69821   0.11371
H          H       0.08315   0.55320   0.70624   0.10502
H          H       0.46643   0.36484   0.60844   0.08968
H          H       0.35891   0.42437   0.63100   0.13159
H          H       0.39323   0.37521   0.79119   0.15126
H          H       0.01859   0.43187   0.85792   0.10500
H          H       0.15310   0.40310   0.85130   0.11204
H          H       0.50045   0.32147   0.76293   0.10304
H          H       0.28836   0.46420   0.69424   0.28966
H          H       0.82096   0.60403   0.41751   0.11093
H          H       0.47890   0.69052   0.36483   0.11439
H          H       0.44676   0.52964   0.37288   0.10479
H          H       0.63535   0.10186   0.27522   0.08992
H          H       0.57568   0.93472   0.29763   0.13135
H          H       0.62487   0.01824   0.45791   0.15124
H          H       0.56829   0.58714   0.52447   0.10439
H          H       0.59692   0.75027   0.51790   0.11247
H          H       0.67869   0.17927   0.42959   0.10281
H          H       0.53567   0.82413   0.36089   0.29002
H          H       0.60420   0.78318   0.08446   0.11092
H          H       0.69095   0.21223   0.03154   0.11369
H          H       0.52977   0.08310   0.03961   0.10504
H          H       0.10290   0.46671   0.94145   0.08881
H          H       0.93557   0.35995   0.96404   0.13143
H          H       0.01964   0.39454   0.12426   0.15559
H          H       0.58725   0.01894   0.19114   0.10472
H          H       0.75063   0.15369   0.18450   0.11500
H          H       0.18106   0.50113   0.09570   0.10198
H          H       0.82470   0.28928   0.02761   0.28927
H          H       0.21740   0.82067   0.75068   0.11075
H          H       0.78817   0.47908   0.69821   0.11377
H          H       0.91684   0.44680   0.70624   0.10487
H          H       0.53356   0.63516   0.60844   0.08978
H          H       0.64108   0.57563   0.63100   0.13150
H          H       0.60677   0.62479   0.79119   0.15131
H          H       0.98140   0.56813   0.85792   0.10481
H          H       0.84689   0.59690   0.85130   0.11234
H          H       0.49954   0.67853   0.76293   0.10332
H          H       0.71164   0.53580   0.69424   0.28948
H          H       0.17904   0.39598   0.41751   0.11095
H          H       0.52110   0.30948   0.36483   0.11427
H          H       0.55324   0.47036   0.37288   0.10465
H          H       0.36465   0.89815   0.27522   0.08991
H          H       0.42431   0.06528   0.29763   0.13132
H          H       0.37513   0.98176   0.45791   0.15126
H          H       0.43170   0.41286   0.52447   0.10450
H          H       0.40307   0.24973   0.51790   0.11258
H          H       0.32130   0.82073   0.42959   0.10282
H          H       0.46432   0.17587   0.36089   0.29007
H          H       0.21666   0.39565   0.58234   0.11049
H          H       0.78781   0.30899   0.63513   0.11412
H          H       0.91681   0.47006   0.62703   0.10486
H          H       0.53331   0.89706   0.72507   0.08915
H          H       0.63998   0.06428   0.70261   0.13164
H          H       0.60563   0.98058   0.54234   0.15046
H          H       0.98114   0.41286   0.47552   0.10464
H          H       0.84651   0.24954   0.48213   0.11223
H          H       0.49915   0.81932   0.57080   0.10208
H          H       0.71066   0.17515   0.63912   0.28948
H          H       0.17927   0.78281   0.91559   0.11123
H          H       0.52088   0.21166   0.96851   0.11405
H          H       0.55319   0.08311   0.96051   0.10484
H          H       0.36485   0.46652   0.05807   0.08997
H          H       0.42431   0.35896   0.03563   0.13127
H          H       0.37528   0.39312   0.87540   0.15013
H          H       0.43187   0.01870   0.80879   0.10464
H          H       0.40315   0.15308   0.81539   0.11217
H          H       0.32161   0.50043   0.90356   0.10282
H          H       0.46422   0.28831   0.97242   0.28984
H          H       0.60385   0.82093   0.24928   0.11100
H          H       0.69061   0.47874   0.30182   0.11384
H          H       0.52954   0.44669   0.29374   0.10485
H          H       0.10238   0.63575   0.39176   0.08852
H          H       0.93515   0.57566   0.36918   0.13152
H          H       0.01917   0.62502   0.20897   0.15136
H          H       0.58726   0.56830   0.14217   0.10453
H          H       0.75057   0.59694   0.14882   0.11488
H          H       0.18044   0.67934   0.23748   0.10235
H          H       0.82442   0.53559   0.30574   0.28970
H          H       0.78333   0.60435   0.58234   0.11055
H          H       0.21218   0.69101   0.63513   0.11401
H          H       0.08318   0.52994   0.62703   0.10463
H          H       0.46668   0.10295   0.72507   0.08905
H          H       0.36001   0.93572   0.70261   0.13162
H          H       0.39436   0.01942   0.54234   0.15040
H          H       0.01886   0.58714   0.47552   0.10478
H          H       0.15349   0.75046   0.48213   0.11229
H          H       0.50085   0.18069   0.57080   0.10201
H          H       0.28933   0.82486   0.63912   0.28954
H          H       0.82073   0.21719   0.91559   0.11110
H          H       0.47911   0.78834   0.96851   0.11410
H          H       0.44680   0.91690   0.96051   0.10503
H          H       0.63514   0.53348   0.05807   0.08980
H          H       0.57568   0.64103   0.03563   0.13142
H          H       0.62472   0.60688   0.87540   0.15015
H          H       0.56812   0.98131   0.80879   0.10465
H          H       0.59685   0.84692   0.81539   0.11186
H          H       0.67838   0.49958   0.90356   0.10263
H          H       0.53577   0.71169   0.97242   0.29021
H          H       0.39615   0.17907   0.24928   0.11112
H          H       0.30938   0.52126   0.30182   0.11395
H          H       0.47045   0.55331   0.29374   0.10473
H          H       0.89762   0.36425   0.39176   0.08865
H          H       0.06485   0.42435   0.36918   0.13150
H          H       0.98083   0.37498   0.20897   0.15133
H          H       0.41274   0.43170   0.14217   0.10446
H          H       0.24942   0.40306   0.14882   0.11500
H          H       0.81955   0.32066   0.23748   0.10252
H          H       0.17557   0.46441   0.30574   0.28959
H          H       0.65581   0.32796   0.16663   0.12440
H          H       0.30755   0.15364   0.16690   0.11251
H          H       0.67202   0.32777   0.83329   0.12442
H          H       0.84586   0.15407   0.83313   0.11238
H          H       0.67229   0.34460   0.50008   0.12508
H          H       0.84637   0.69250   0.49988   0.11212
H          H       0.34418   0.67204   0.16663   0.12467
H          H       0.69244   0.84636   0.16690   0.11219
H          H       0.32798   0.67224   0.83329   0.12405
H          H       0.15413   0.84593   0.83313   0.11275
H          H       0.32770   0.65541   0.50008   0.12517
H          H       0.15362   0.30750   0.49988   0.11213
C          C       0.57900   0.31831   0.07030   0.56187
C          C       0.53063   0.27807   0.12057  -0.04849
C          C       0.43249   0.22743   0.12086  -0.08950
C          C       0.26719   0.80888   0.10774  -0.04239
C          C       0.16664   0.73444   0.10633   0.47625
C          C       0.32985   0.82918   0.06674  -0.10075
C          C       0.42113   0.90282   0.07091  -0.13368
C          C       0.91868   0.55111   0.98154   0.08223
C          C       0.01154   0.61063   0.99416  -0.24068
C          C       0.96583   0.59095   0.08359  -0.22766
C          C       0.03731   0.63257   0.04654   0.29253
C          C       0.39021   0.93699   0.15689  -0.14063
C          C       0.29895   0.86270   0.15314  -0.09364
C          C       0.45238   0.95918   0.11528   0.07636
C          C       0.87485   0.53190   0.06745   0.10271
C          C       0.68161   0.26093   0.73677   0.56137
C          C       0.72174   0.25265   0.78703  -0.04898
C          C       0.77224   0.20524   0.78723  -0.09010
C          C       0.19051   0.45813   0.77450  -0.04216
C          C       0.26482   0.43217   0.77310   0.47762
C          C       0.17039   0.50039   0.73342  -0.10110
C          C       0.09703   0.51815   0.73756  -0.13312
C          C       0.44841   0.36855   0.64851   0.08396
C          C       0.38858   0.40124   0.66106  -0.24054
C          C       0.40807   0.37542   0.75058  -0.22484
C          C       0.36651   0.40493   0.71342   0.29359
C          C       0.06267   0.45323   0.82365  -0.13971
C          C       0.13674   0.43619   0.81992  -0.09178
C          C       0.04073   0.49320   0.78198   0.07667
C          C       0.46746   0.34414   0.73459   0.10221
C          C       0.73896   0.42088   0.40361   0.56172
C          C       0.74742   0.46944   0.45383  -0.04940
C          C       0.79494   0.56749   0.45399  -0.08975
C          C       0.54176   0.73234   0.44108  -0.04148
C          C       0.56778   0.83264   0.43971   0.47759
C          C       0.49947   0.66977   0.40004  -0.10262
C          C       0.48179   0.57867   0.40420  -0.13220
C          C       0.63157   0.08009   0.31525   0.08201
C          C       0.59878   0.98746   0.32776  -0.24010
C          C       0.62461   0.03282   0.41729  -0.22431
C          C       0.59505   0.96168   0.38011   0.29366
C          C       0.54681   0.60965   0.49023  -0.13987
C          C       0.56379   0.70073   0.48651  -0.09203
C          C       0.50682   0.54753   0.44861   0.07637
C          C       0.65597   0.12356   0.40127   0.10205
C          C       0.42099   0.68169   0.07030   0.56195
C          C       0.46936   0.72193   0.12057  -0.04865
C          C       0.56750   0.77257   0.12086  -0.08957
C          C       0.73280   0.19112   0.10774  -0.04246
C          C       0.83335   0.26556   0.10633   0.47656
C          C       0.67014   0.17082   0.06674  -0.10072
C          C       0.57887   0.09718   0.07091  -0.13357
C          C       0.08131   0.44889   0.98154   0.08246
C          C       0.98845   0.38937   0.99416  -0.24070
C          C       0.03417   0.40905   0.08359  -0.22763
C          C       0.96268   0.36743   0.04654   0.29239
C          C       0.60978   0.06301   0.15689  -0.14052
C          C       0.70104   0.13730   0.15314  -0.09365
C          C       0.54761   0.04082   0.11528   0.07627
C          C       0.12514   0.46810   0.06745   0.10255
C          C       0.31838   0.73907   0.73677   0.56141
C          C       0.27826   0.74735   0.78703  -0.04939
C          C       0.22776   0.79477   0.78723  -0.08975
C          C       0.80949   0.54187   0.77450  -0.04212
C          C       0.73518   0.56783   0.77310   0.47736
C          C       0.82960   0.49962   0.73342  -0.10097
C          C       0.90297   0.48185   0.73756  -0.13329
C          C       0.55159   0.63145   0.64851   0.08378
C          C       0.61141   0.59876   0.66106  -0.24095
C          C       0.59192   0.62458   0.75058  -0.22498
C          C       0.63348   0.59507   0.71342   0.29391
C          C       0.93732   0.54677   0.82365  -0.13959
C          C       0.86326   0.56382   0.81992  -0.09192
C          C       0.95927   0.50680   0.78198   0.07658
C          C       0.53253   0.65586   0.73459   0.10209
C          C       0.26103   0.57913   0.40361   0.56178
C          C       0.25257   0.53056   0.45383  -0.04948
C          C       0.20505   0.43251   0.45399  -0.08972
C          C       0.45823   0.26767   0.44108  -0.04178
C          C       0.43222   0.16736   0.43971   0.47785
C          C       0.50053   0.33024   0.40004  -0.10254
C          C       0.51821   0.42133   0.40420  -0.13213
C          C       0.36843   0.91992   0.31525   0.08204
C          C       0.40121   0.01254   0.32776  -0.23991
C          C       0.37538   0.96718   0.41729  -0.22422
C          C       0.40495   0.03832   0.38011   0.29368
C          C       0.45319   0.39035   0.49023  -0.13978
C          C       0.43620   0.29927   0.48651  -0.09203
C          C       0.49317   0.45248   0.44861   0.07641
C          C       0.34403   0.87645   0.40127   0.10197
C          C       0.31823   0.57886   0.59648   0.56034
C          C       0.27791   0.53042   0.54623  -0.04804
C          C       0.22726   0.43236   0.54593  -0.08997
C          C       0.80896   0.26722   0.55893  -0.04230
C          C       0.73453   0.16674   0.56036   0.47695
C          C       0.82923   0.32983   0.59991  -0.10102
C          C       0.90282   0.42107   0.59573  -0.13354
C          C       0.55117   0.91873   0.68501   0.08291
C          C       0.61066   0.01155   0.67244  -0.24198
C          C       0.59109   0.96601   0.58300  -0.22470
C          C       0.63266   0.03737   0.62007   0.29353
C          C       0.93703   0.39025   0.50976  -0.14049
C          C       0.86278   0.29901   0.51352  -0.09169
C          C       0.95919   0.45239   0.55134   0.07683
C          C       0.53207   0.87508   0.59910   0.10260
C          C       0.26097   0.68185   0.92966   0.56222
C          C       0.25276   0.72189   0.87938  -0.04952
C          C       0.20530   0.77234   0.87914  -0.08922
C          C       0.45812   0.19045   0.89220  -0.04160
C          C       0.43218   0.26475   0.89357   0.47727
C          C       0.50034   0.17029   0.93329  -0.10176
C          C       0.51811   0.09696   0.92917  -0.13228
C          C       0.36858   0.44848   0.01801   0.08341
C          C       0.40120   0.38859   0.00553  -0.23963
C          C       0.37546   0.40800   0.91600  -0.22393
C          C       0.40494   0.36646   0.95320   0.29336
C          C       0.45323   0.06267   0.84308  -0.13921
C          C       0.43620   0.13670   0.84680  -0.09263
C          C       0.49318   0.04070   0.88476   0.07636
C          C       0.34424   0.46745   0.93193   0.10220
C          C       0.42074   0.73917   0.26318   0.56094
C          C       0.46923   0.74734   0.21296  -0.04743
C          C       0.56737   0.79492   0.21277  -0.09019
C          C       0.73258   0.54176   0.22560  -0.04259
C          C       0.83305   0.56785   0.22700   0.47800
C          C       0.66989   0.49939   0.26662  -0.10128
C          C       0.57870   0.48173   0.26244  -0.13282
C          C       0.08081   0.63203   0.35167   0.08292
C          C       0.98803   0.59895   0.33908  -0.24137
C          C       0.03368   0.62490   0.24962  -0.22549
C          C       0.96229   0.59520   0.28670   0.29342
C          C       0.60977   0.54681   0.17642  -0.14009
C          C       0.70094   0.56380   0.18019  -0.09421
C          C       0.54756   0.50680   0.21804   0.07621
C          C       0.12458   0.65657   0.26574   0.10232
C          C       0.68176   0.42114   0.59648   0.56033
C          C       0.72208   0.46958   0.54623  -0.04826
C          C       0.77273   0.56764   0.54593  -0.09001
C          C       0.19104   0.73278   0.55893  -0.04235
C          C       0.26546   0.83326   0.56036   0.47685
C          C       0.17076   0.67017   0.59991  -0.10104
C          C       0.09717   0.57893   0.59573  -0.13343
C          C       0.44883   0.08127   0.68501   0.08327
C          C       0.38933   0.98845   0.67244  -0.24209
C          C       0.40890   0.03400   0.58300  -0.22475
C          C       0.36734   0.96263   0.62007   0.29352
C          C       0.06296   0.60975   0.50976  -0.14038
C          C       0.13721   0.70099   0.51352  -0.09171
C          C       0.04081   0.54761   0.55134   0.07683
C          C       0.46792   0.12492   0.59910   0.10276
C          C       0.73902   0.31815   0.92965   0.56192
C          C       0.74724   0.27812   0.87938  -0.04938
C          C       0.79469   0.22766   0.87914  -0.08958
C          C       0.54188   0.80956   0.89220  -0.04156
C          C       0.56781   0.73525   0.89357   0.47763
C          C       0.49965   0.82971   0.93329  -0.10193
C          C       0.48188   0.90304   0.92917  -0.13211
C          C       0.63141   0.55152   0.01801   0.08376
C          C       0.59879   0.61141   0.00553  -0.23966
C          C       0.62454   0.59201   0.91600  -0.22361
C          C       0.59506   0.63355   0.95320   0.29306
C          C       0.54676   0.93733   0.84308  -0.13922
C          C       0.56379   0.86330   0.84680  -0.09265
C          C       0.50681   0.95931   0.88476   0.07636
C          C       0.65575   0.53255   0.93193   0.10204
C          C       0.57926   0.26084   0.26318   0.56111
C          C       0.53076   0.25266   0.21296  -0.04745
C          C       0.43262   0.20508   0.21277  -0.09015
C          C       0.26742   0.45824   0.22560  -0.04276
C          C       0.16695   0.43215   0.22700   0.47804
C          C       0.33011   0.50061   0.26662  -0.10122
C          C       0.42130   0.51827   0.26244  -0.13284
C          C       0.91919   0.36797   0.35167   0.08301
C          C       0.01197   0.40106   0.33908  -0.24172
C          C       0.96631   0.37511   0.24962  -0.22553
C          C       0.03771   0.40480   0.28670   0.29338
C          C       0.39023   0.45319   0.17642  -0.14037
C          C       0.29906   0.43620   0.18019  -0.09404
C          C       0.45243   0.49320   0.21804   0.07638
C          C       0.87541   0.34344   0.26574   0.10235
C          C       0.57987   0.28998   0.16673  -0.09418
C          C       0.38352   0.19169   0.16685  -0.09323
C          C       0.70992   0.28990   0.83323  -0.09362
C          C       0.80793   0.19196   0.83318  -0.09343
C          C       0.71021   0.42044   0.50006  -0.09505
C          C       0.80838   0.61658   0.49993  -0.09208
C          C       0.42013   0.71002   0.16673  -0.09401
C          C       0.61647   0.80831   0.16685  -0.09319
C          C       0.29007   0.71010   0.83323  -0.09359
C          C       0.19206   0.80804   0.83318  -0.09355
C          C       0.28978   0.57956   0.50006  -0.09516
C          C       0.19162   0.38342   0.49993  -0.09225
N          N       0.84992   0.51145   0.01731  -0.25555
N          N       0.13051   0.69432   0.05841  -0.36622
N          N       0.48813   0.34000   0.68445  -0.25629
N          N       0.30462   0.43593   0.72512  -0.36719
N          N       0.66017   0.14845   0.35116  -0.25457
N          N       0.56395   0.86870   0.39178  -0.36809
N          N       0.15008   0.48855   0.01731  -0.25579
N          N       0.86949   0.30568   0.05841  -0.36617
N          N       0.51186   0.66000   0.68445  -0.25563
N          N       0.69537   0.56407   0.72512  -0.36729
N          N       0.33983   0.85155   0.35116  -0.25471
N          N       0.43605   0.13130   0.39178  -0.36828
N          N       0.51161   0.85006   0.64923  -0.25602
N          N       0.69439   0.13052   0.60828  -0.36685
N          N       0.34014   0.48825   0.98205  -0.25575
N          N       0.43595   0.30457   0.94153  -0.36716
N          N       0.14951   0.66097   0.31589  -0.25595
N          N       0.86917   0.56399   0.27491  -0.36746
N          N       0.48839   0.14994   0.64923  -0.25612
N          N       0.30560   0.86948   0.60828  -0.36682
N          N       0.65986   0.51175   0.98205  -0.25621
N          N       0.56405   0.69543   0.94153  -0.36729
N          N       0.85049   0.33903   0.31589  -0.25577
N          N       0.13082   0.43601   0.27491  -0.36742
O          O       0.66874   0.37216   0.07057  -0.53648
O          O       0.53107   0.30005   0.02948  -0.57799
O          O       0.11839   0.71330   0.14587  -0.45350
O          O       0.62830   0.29731   0.73734  -0.53691
O          O       0.69944   0.23126   0.69592  -0.57501
O          O       0.28623   0.40536   0.81261  -0.45366
O          O       0.70281   0.33111   0.40417  -0.53683
O          O       0.76842   0.46855   0.36278  -0.57494
O          O       0.59470   0.88088   0.47924  -0.45297
O          O       0.33125   0.62784   0.07057  -0.53626
O          O       0.46893   0.69995   0.02948  -0.57818
O          O       0.88160   0.28670   0.14587  -0.45386
O          O       0.37169   0.70270   0.73734  -0.53734
O          O       0.30055   0.76874   0.69592  -0.57475
O          O       0.71377   0.59464   0.81261  -0.45332
O          O       0.29718   0.66889   0.40417  -0.53683
O          O       0.23158   0.53145   0.36278  -0.57494
O          O       0.40530   0.11912   0.47924  -0.45303
O          O       0.37208   0.66857   0.59615  -0.53602
O          O       0.30009   0.53100   0.63727  -0.57619
O          O       0.71338   0.11858   0.52081  -0.45341
O          O       0.29743   0.62863   0.92917  -0.53818
O          O       0.23110   0.69977   0.97039  -0.57457
O          O       0.40538   0.28618   0.85405  -0.45350
O          O       0.33102   0.70323   0.26277  -0.53592
O          O       0.46846   0.76881   0.30407  -0.57737
O          O       0.88128   0.59486   0.18743  -0.45445
O          O       0.62792   0.33143   0.59615  -0.53609
O          O       0.69990   0.46900   0.63727  -0.57602
O          O       0.28662   0.88142   0.52081  -0.45327
O          O       0.70256   0.37137   0.92917  -0.53748
O          O       0.76889   0.30024   0.97039  -0.57480
O          O       0.59461   0.71382   0.85405  -0.45393
O          O       0.66898   0.29677   0.26277  -0.53631
O          O       0.53153   0.23119   0.30407  -0.57721
O          O       0.11871   0.40514   0.18743  -0.45434

