data_crystal

_audit_creation_method 'AiiDA-DDEC plugin'

_cell_length_a         8.95879
_cell_length_b        17.67911
_cell_length_c        21.45653

_cell_angle_alpha     89.88785
_cell_angle_beta     89.95569
_cell_angle_gamma     89.98596

_symmetry_space_group_name_Hall 'P 1'
_symmetry_space_group_name_H-M  'P 1'

loop_
_symmetry_equiv_pos_as_xyz
 'x,y,z'

loop_
_atom_site_label
_atom_site_type_symbol
_atom_site_fract_x
_atom_site_fract_y
_atom_site_fract_z
_atom_site_charge
Cu         Cu      0.01989   0.89387   0.88954   0.26493
Cu         Cu      0.97817   0.39279   0.10939   0.26469
Cu         Cu      0.98159   0.89464   0.38945   0.26462
Cu         Cu      0.02208   0.39257   0.60984   0.26477
H          H       0.70424   0.94520   0.89224   0.07845
H          H       0.95592   0.84813   0.03409   0.08245
H          H       0.83430   0.93079   0.11362   0.11148
H          H       0.64069   0.02159   0.08188   0.11570
H          H       0.70996   0.31285   0.07377   0.08265
H          H       0.92303   0.50846   0.01562   0.08388
H          H       0.76634   0.51650   0.91918   0.11713
H          H       0.57468   0.41609   0.89894   0.11566
H          H       0.51056   0.09670   0.03870   0.27343
H          H       0.48162   0.27219   0.06690   0.27228
H          H       0.25277   0.10564   0.96990   0.07008
H          H       0.37964   0.16028   0.92521   0.09613
H          H       0.23150   0.23911   0.99718   0.08359
H          H       0.29953   0.18814   0.06276   0.09519
H          H       0.32372   0.91594   0.84466   0.07851
H          H       0.08840   0.72643   0.79086   0.08359
H          H       0.16959   0.74106   0.67963   0.11752
H          H       0.34242   0.84768   0.65165   0.11922
H          H       0.77017   0.30960   0.63422   0.08434
H          H       0.00891   0.46156   0.74317   0.08601
H          H       0.86218   0.42513   0.83809   0.11030
H          H       0.66765   0.32607   0.83098   0.10687
H          H       0.48831   0.98530   0.82124   0.27133
H          H       0.57421   0.22701   0.81225   0.27536
H          H       0.66689   0.07535   0.80053   0.08663
H          H       0.63845   0.06595   0.71850   0.08970
H          H       0.40180   0.12913   0.80766   0.09002
H          H       0.40074   0.13418   0.72441   0.09240
H          H       0.29461   0.44458   0.10772   0.07838
H          H       0.04509   0.34879   0.96500   0.08331
H          H       0.16698   0.43241   0.88600   0.11203
H          H       0.35886   0.52344   0.91854   0.11554
H          H       0.29096   0.81530   0.92511   0.08431
H          H       0.07159   0.00887   0.98346   0.08332
H          H       0.22675   0.01696   0.08032   0.11715
H          H       0.42048   0.91748   0.10076   0.11590
H          H       0.48630   0.59907   0.96208   0.27372
H          H       0.51572   0.77332   0.93309   0.27362
H          H       0.74538   0.60765   0.03126   0.07070
H          H       0.61688   0.66181   0.07536   0.09491
H          H       0.76476   0.74111   0.00356   0.08256
H          H       0.69880   0.68989   0.93795   0.09485
H          H       0.67195   0.41474   0.15425   0.07823
H          H       0.90778   0.22464   0.20691   0.08399
H          H       0.83282   0.23990   0.31879   0.11790
H          H       0.66232   0.34704   0.34767   0.11988
H          H       0.23282   0.81142   0.36494   0.08430
H          H       0.99413   0.96367   0.25579   0.08715
H          H       0.13618   0.92497   0.16038   0.11032
H          H       0.32845   0.82490   0.16734   0.10659
H          H       0.51158   0.48557   0.17893   0.27232
H          H       0.42566   0.72632   0.18656   0.27486
H          H       0.33424   0.57550   0.20066   0.08709
H          H       0.36504   0.56576   0.28258   0.08907
H          H       0.60106   0.62913   0.19319   0.08843
H          H       0.59935   0.63567   0.27633   0.09266
H          H       0.30074   0.94474   0.39125   0.07792
H          H       0.04749   0.84846   0.53312   0.08320
H          H       0.17044   0.93045   0.61276   0.11143
H          H       0.36467   0.02087   0.58088   0.11557
H          H       0.29063   0.31308   0.57378   0.08266
H          H       0.07563   0.50813   0.51532   0.08354
H          H       0.23186   0.51589   0.41865   0.11685
H          H       0.42414   0.41570   0.39841   0.11449
H          H       0.48781   0.09863   0.53763   0.27484
H          H       0.51893   0.27346   0.56677   0.27169
H          H       0.75030   0.10661   0.47068   0.06990
H          H       0.62469   0.16108   0.42529   0.09466
H          H       0.76913   0.24020   0.49834   0.08292
H          H       0.69956   0.18868   0.56334   0.09505
H          H       0.67437   0.91525   0.34498   0.07862
H          H       0.91113   0.72616   0.29106   0.08328
H          H       0.83221   0.74148   0.17964   0.11714
H          H       0.66014   0.84832   0.15160   0.12122
H          H       0.22901   0.30940   0.13396   0.08462
H          H       0.99067   0.46188   0.24276   0.08718
H          H       0.13722   0.42553   0.33769   0.11046
H          H       0.33170   0.32643   0.33052   0.10674
H          H       0.51335   0.98525   0.32148   0.27099
H          H       0.42598   0.22770   0.31218   0.27491
H          H       0.33506   0.07531   0.30224   0.08712
H          H       0.35956   0.06628   0.21995   0.08829
H          H       0.59858   0.13001   0.30774   0.08959
H          H       0.59849   0.13432   0.22440   0.09189
H          H       0.70460   0.44372   0.60791   0.07797
H          H       0.95542   0.34753   0.46559   0.08270
H          H       0.83370   0.43076   0.38631   0.11199
H          H       0.64210   0.52210   0.41856   0.11558
H          H       0.71377   0.81395   0.42591   0.08368
H          H       0.92842   0.00904   0.48383   0.08361
H          H       0.77273   0.01645   0.58066   0.11736
H          H       0.58058   0.91632   0.60116   0.11484
H          H       0.51231   0.59651   0.46123   0.27384
H          H       0.48576   0.77422   0.43351   0.27291
H          H       0.25452   0.60709   0.53000   0.07065
H          H       0.38297   0.66047   0.57471   0.09531
H          H       0.23712   0.74080   0.50324   0.08149
H          H       0.30346   0.69024   0.43733   0.09498
H          H       0.32640   0.41568   0.65449   0.07844
H          H       0.09241   0.22486   0.70693   0.08391
H          H       0.16761   0.23985   0.81873   0.11799
H          H       0.33816   0.34682   0.84769   0.12018
H          H       0.76599   0.81275   0.86567   0.08505
H          H       0.00988   0.96207   0.75559   0.08754
H          H       0.86587   0.92424   0.66054   0.11038
H          H       0.67056   0.82570   0.66819   0.10609
H          H       0.48832   0.48577   0.67889   0.27261
H          H       0.57523   0.72754   0.68783   0.27448
H          H       0.66509   0.57581   0.70003   0.08731
H          H       0.63590   0.56603   0.78207   0.08857
H          H       0.40051   0.63079   0.69304   0.09000
H          H       0.40020   0.63593   0.77626   0.09271
C          C       0.65625   0.99082   0.98248  -0.10564
C          C       0.73149   0.94261   0.94159   0.05440
C          C       0.87187   0.88948   0.02066   0.04307
C          C       0.80377   0.93579   0.06473  -0.12333
C          C       0.69504   0.98754   0.04637  -0.10157
C          C       0.53923   0.04014   0.95560   0.45262
C          C       0.62580   0.35604   0.98511  -0.09722
C          C       0.71607   0.35673   0.03809   0.04056
C          C       0.83780   0.46661   0.00551   0.02234
C          C       0.75078   0.46990   0.95182  -0.13132
C          C       0.64495   0.41421   0.94022  -0.09319
C          C       0.51252   0.29675   0.97261   0.46076
C          C       0.35507   0.14024   0.97236  -0.03779
C          C       0.32771   0.20728   0.01550  -0.03184
C          C       0.34663   0.89100   0.74590  -0.07953
C          C       0.29511   0.87787   0.80652   0.03898
C          C       0.16232   0.77236   0.77684   0.08018
C          C       0.20697   0.78096   0.71490  -0.13148
C          C       0.30144   0.84055   0.69904  -0.07306
C          C       0.44033   0.95802   0.72835   0.45611
C          C       0.70467   0.30805   0.73060  -0.09475
C          C       0.78876   0.33387   0.68012   0.05198
C          C       0.92076   0.41945   0.74108   0.03706
C          C       0.83973   0.39802   0.79356  -0.11622
C          C       0.73104   0.34167   0.78950  -0.10290
C          C       0.60146   0.24381   0.71779   0.44853
C          C       0.58285   0.06804   0.76395  -0.03516
C          C       0.47175   0.13486   0.76599  -0.04169
C          C       0.34309   0.49141   0.01769  -0.10444
C          C       0.26785   0.44265   0.05832   0.05500
C          C       0.12857   0.39017   0.97878   0.04211
C          C       0.19683   0.43694   0.93498  -0.12146
C          C       0.30474   0.48878   0.95379  -0.10311
C          C       0.45987   0.54064   0.04471   0.45404
C          C       0.37200   0.85799   0.01427  -0.09631
C          C       0.28295   0.85881   0.96090   0.03894
C          C       0.15797   0.96757   0.99356   0.02389
C          C       0.24395   0.97079   0.04756  -0.13225
C          C       0.35091   0.91569   0.05927  -0.09526
C          C       0.48569   0.79911   0.02710   0.45741
C          C       0.64250   0.64178   0.02836  -0.03585
C          C       0.66944   0.70890   0.98505  -0.03050
C          C       0.65450   0.39037   0.25335  -0.08136
C          C       0.70232   0.37677   0.19234   0.03975
C          C       0.83525   0.27089   0.22140   0.07948
C          C       0.79409   0.27983   0.28367  -0.13023
C          C       0.70125   0.33983   0.30003  -0.07190
C          C       0.56312   0.45792   0.27148   0.45510
C          C       0.29547   0.80857   0.26814  -0.09672
C          C       0.21327   0.83517   0.31886   0.05369
C          C       0.08085   0.92079   0.25787   0.03894
C          C       0.15923   0.89822   0.20508  -0.11925
C          C       0.26703   0.84142   0.20904  -0.09690
C          C       0.39866   0.74425   0.28095   0.44937
C          C       0.41930   0.56817   0.23684  -0.03608
C          C       0.52965   0.63531   0.23436  -0.04042
C          C       0.34819   0.99058   0.48156  -0.10634
C          C       0.27309   0.94249   0.44061   0.05809
C          C       0.13221   0.88952   0.51975   0.04213
C          C       0.20078   0.93546   0.56385  -0.12298
C          C       0.30973   0.98707   0.54545  -0.10332
C          C       0.46502   0.04021   0.45508   0.45510
C          C       0.37387   0.35603   0.48485  -0.09725
C          C       0.28390   0.35683   0.53801   0.03944
C          C       0.16108   0.46632   0.50526   0.02268
C          C       0.24768   0.46941   0.45137  -0.13238
C          C       0.35396   0.41392   0.43978  -0.09337
C          C       0.48752   0.29691   0.47240   0.46016
C          C       0.64762   0.14100   0.47256  -0.03496
C          C       0.67271   0.20797   0.51599  -0.03066
C          C       0.65366   0.89105   0.24601  -0.07993
C          C       0.70392   0.87748   0.30674   0.03899
C          C       0.83752   0.77219   0.27699   0.08129
C          C       0.79409   0.78117   0.21496  -0.13102
C          C       0.70003   0.84093   0.19911  -0.07347
C          C       0.55986   0.95815   0.22850   0.45753
C          C       0.29467   0.30805   0.23032  -0.09508
C          C       0.21055   0.33373   0.17984   0.05322
C          C       0.07865   0.41965   0.24070   0.03621
C          C       0.15950   0.39827   0.29319  -0.11699
C          C       0.26807   0.34185   0.28912  -0.10215
C          C       0.39842   0.24392   0.21766   0.44786
C          C       0.41736   0.06815   0.26490  -0.03367
C          C       0.52812   0.13513   0.26620  -0.04024
C          C       0.65684   0.49024   0.51774  -0.10718
C          C       0.73182   0.44164   0.55853   0.05753
C          C       0.87170   0.38890   0.47921   0.04268
C          C       0.80360   0.43546   0.43526  -0.12357
C          C       0.69558   0.48736   0.45388  -0.10082
C          C       0.54046   0.53991   0.54451   0.45717
C          C       0.63109   0.85663   0.51487  -0.09762
C          C       0.72050   0.85770   0.46154   0.03795
C          C       0.84295   0.96725   0.49400   0.02217
C          C       0.75666   0.97013   0.54798  -0.13182
C          C       0.65058   0.91457   0.55974  -0.09248
C          C       0.51861   0.79710   0.52769   0.46100
C          C       0.35787   0.64091   0.52756  -0.03774
C          C       0.33243   0.70856   0.48465  -0.02845
C          C       0.34537   0.39063   0.75341  -0.08082
C          C       0.29677   0.37738   0.69248   0.03834
C          C       0.16459   0.27119   0.72144   0.08000
C          C       0.20620   0.27992   0.78367  -0.12989
C          C       0.29901   0.33987   0.80006  -0.07333
C          C       0.43677   0.45820   0.77148   0.45553
C          C       0.70439   0.80949   0.76889  -0.09694
C          C       0.78649   0.83615   0.81952   0.05244
C          C       0.92154   0.92010   0.75794   0.03581
C          C       0.84212   0.89794   0.70535  -0.11768
C          C       0.73286   0.84196   0.70969  -0.09720
C          C       0.60144   0.74529   0.78210   0.45001
C          C       0.58070   0.56856   0.73656  -0.03495
C          C       0.47098   0.63604   0.73457  -0.04017
N          N       0.83828   0.89305   0.95854  -0.26510
N          N       0.82074   0.41023   0.04897  -0.20780
N          N       0.47934   0.09398   0.99329  -0.34762
N          N       0.45536   0.25774   0.02226  -0.36152
N          N       0.20496   0.81995   0.82258  -0.26521
N          N       0.89558   0.38744   0.68401  -0.20357
N          N       0.50748   0.99663   0.77512  -0.35962
N          N       0.54949   0.20671   0.76918  -0.34449
N          N       0.16143   0.39315   0.04096  -0.26536
N          N       0.17728   0.91181   0.94989  -0.21071
N          N       0.51941   0.59495   0.00717  -0.34998
N          N       0.54109   0.75884   0.97785  -0.36464
N          N       0.79078   0.31842   0.17581  -0.26393
N          N       0.10703   0.88910   0.31507  -0.20458
N          N       0.49432   0.49681   0.22518  -0.35927
N          N       0.45094   0.70686   0.22989  -0.34409
N          N       0.16584   0.89316   0.45761  -0.26837
N          N       0.17880   0.41016   0.54888  -0.20670
N          N       0.52316   0.09441   0.49282  -0.35107
N          N       0.54420   0.25800   0.52225  -0.36312
N          N       0.79391   0.81952   0.32276  -0.26535
N          N       0.10375   0.38736   0.18371  -0.20425
N          N       0.49308   0.99667   0.27545  -0.36194
N          N       0.44953   0.20680   0.26919  -0.34526
N          N       0.83839   0.39207   0.54136  -0.26775
N          N       0.82501   0.91130   0.45039  -0.20727
N          N       0.48092   0.59385   0.50665  -0.34999
N          N       0.46130   0.75831   0.47806  -0.36270
N          N       0.20838   0.31906   0.67593  -0.26285
N          N       0.89400   0.88932   0.81536  -0.20201
N          N       0.50508   0.49729   0.72509  -0.36030
N          N       0.55050   0.70745   0.73105  -0.34508
O          O       0.49598   0.03380   0.90010  -0.52912
O          O       0.47010   0.28404   0.91796  -0.51342
O          O       0.45441   0.97706   0.67255  -0.50089
O          O       0.56961   0.22340   0.66347  -0.52677
O          O       0.50293   0.53382   0.10012  -0.52916
O          O       0.52986   0.78745   0.08175  -0.51271
O          O       0.55273   0.47707   0.32732  -0.50115
O          O       0.43097   0.72375   0.33523  -0.52787
O          O       0.50970   0.03367   0.39980  -0.52981
O          O       0.53029   0.28408   0.41779  -0.51286
O          O       0.54553   0.97713   0.17277  -0.50036
O          O       0.43107   0.22355   0.16342  -0.52590
O          O       0.49820   0.53389   0.60017  -0.53067
O          O       0.47725   0.78391   0.58256  -0.51370
O          O       0.44733   0.47719   0.82730  -0.50111
O          O       0.56913   0.72574   0.83669  -0.52842

