data_crystal

_audit_creation_method 'AiiDA-DDEC plugin'

_cell_length_a         8.81127
_cell_length_b        19.24526
_cell_length_c        23.95075

_cell_angle_alpha     86.11150
_cell_angle_beta     79.41203
_cell_angle_gamma     76.75379

_symmetry_space_group_name_Hall 'P 1'
_symmetry_space_group_name_H-M  'P 1'

loop_
_symmetry_equiv_pos_as_xyz
 'x,y,z'

loop_
_atom_site_label
_atom_site_type_symbol
_atom_site_fract_x
_atom_site_fract_y
_atom_site_fract_z
_atom_site_charge
Ni         Ni      0.50336   0.49868  -0.00071   0.62653
Ni         Ni      0.00036  -0.00008   0.49990   0.62903
Ni         Ni      0.50148  -0.00012   0.00003   0.63101
Ni         Ni      0.50296   0.49945   0.49917   0.63125
H          H       0.61420   0.38477   0.04847   0.24616
H          H       0.74363   0.52842   0.02900   0.24929
H          H       0.36338   0.47637   0.12964   0.07142
H          H       0.49323   0.39704   0.15056   0.06150
H          H       0.65067   0.58315   0.12127   0.05936
H          H       0.45474   0.58254   0.11095   0.08195
H          H       0.26352   0.41480   0.06946   0.08997
H          H       0.38903   0.32871   0.07437   0.06982
H          H       0.69522   0.65526   0.02016   0.07544
H          H       0.48973   0.65743   0.02878   0.09797
H          H       0.81512   0.42255   0.08272   0.10171
H          H       0.76107   0.39713   0.15504   0.11512
H          H       0.82991   0.47731   0.13826   0.11041
H          H       0.51478   0.91441   0.92440   0.24649
H          H       0.26121   0.94682   0.03724   0.25246
H          H       0.39272   0.98536   0.13198   0.09648
H          H       0.19304   0.97864   0.13446   0.07129
H          H       0.53401   0.87521   0.09016   0.07940
H          H       0.35209   0.84569   0.09933   0.05865
H          H       0.78767   0.89394   0.87681   0.07948
H          H       0.83730   0.92147   0.93931   0.09229
H          H       0.67713   0.79838   0.95305   0.05805
H          H       0.72151   0.84592   0.00736   0.07411
H          H       0.30811   0.86114   0.96941   0.10608
H          H       0.28328   0.79272   0.02261   0.11364
H          H       0.42464   0.77315   0.95982   0.11471
H          H       0.70366   0.13560   0.76958   0.08269
H          H       0.84629   0.17543   0.72298   0.08660
H          H       0.44746   0.20838   0.81072   0.08449
H          H       0.53680   0.26870   0.84024   0.08131
H          H       0.06909   0.28255   0.96733   0.10891
H          H       0.18814   0.98985   0.81154   0.11317
H          H       0.98371   0.07255   0.76358   0.11788
H          H       0.31407   0.24798   0.89588   0.11137
H          H       0.12201   0.41449   0.78160   0.12783
H          H       0.88037   0.45051   0.85651   0.10183
H          H       0.10535   0.13664   0.94567   0.10565
H          H       0.90480   0.22176   0.89780   0.12401
H          H       0.04738   0.11444   0.45197   0.24729
H          H       0.29917   0.97198   0.47117   0.24911
H          H       0.96992   0.02419   0.36961   0.07083
H          H       0.04159   0.10358   0.34961   0.06157
H          H       0.35549   0.91707   0.37846   0.05854
H          H       0.14883   0.91766   0.38849   0.08101
H          H       0.74748   0.08553   0.43026   0.08998
H          H       0.79302   0.17138   0.42594   0.07041
H          H       0.37124   0.84472   0.47972   0.07583
H          H       0.17704   0.84222   0.47080   0.09814
H          H       0.32054   0.07753   0.41743   0.10169
H          H       0.31382   0.10311   0.34509   0.11522
H          H       0.44586   0.02287   0.36191   0.11081
H          H       0.35302   0.58515   0.57517   0.24601
H          H       0.24715   0.55291   0.46272   0.25188
H          H       0.51127   0.51484   0.36763   0.09610
H          H       0.30724   0.52166   0.36517   0.07074
H          H       0.50007   0.62515   0.40975   0.07744
H          H       0.29771   0.65441   0.40060   0.05890
H          H       0.55713   0.60581   0.62324   0.08007
H          H       0.69732   0.57827   0.56091   0.09299
H          H       0.42785   0.70117   0.54729   0.05749
H          H       0.57476   0.65392   0.49299   0.07239
H          H       0.13858   0.63884   0.53038   0.10839
H          H       0.09877   0.70741   0.47722   0.11483
H          H       0.15743   0.72680   0.54011   0.11601
H          H       0.60527   0.36338   0.73109   0.08421
H          H       0.74291   0.32429   0.77724   0.08703
H          H       0.46585   0.28870   0.68977   0.08398
H          H       0.64740   0.23016   0.66015   0.08013
H          H       0.31780   0.21690   0.53360   0.10827
H          H       0.98926   0.50939   0.68848   0.11396
H          H       0.81878   0.42706   0.73642   0.11772
H          H       0.45889   0.25001   0.60481   0.11239
H          H       0.32013   0.08287   0.71827   0.12827
H          H       0.18602   0.04834   0.64388   0.10272
H          H       0.18627   0.36215   0.55442   0.10584
H          H       0.02178   0.27783   0.60223   0.12344
H          H       0.38721   0.61332   0.95201   0.24564
H          H       0.26026   0.47217   0.97132   0.25092
H          H       0.63724   0.52357   0.86930   0.07107
H          H       0.50617   0.60304   0.84942   0.06223
H          H       0.34894   0.41679   0.87832   0.05975
H          H       0.54563   0.41696   0.88794   0.08168
H          H       0.73788   0.58550   0.93014   0.08897
H          H       0.60987   0.67105   0.92558   0.06977
H          H       0.30428   0.34456   0.97974   0.07603
H          H       0.51022   0.34131   0.97110   0.09734
H          H       0.18533   0.57735   0.91731   0.10209
H          H       0.23897   0.60283   0.84500   0.11500
H          H       0.16996   0.52269   0.86178   0.11023
H          H       0.48515   0.08584   0.07574   0.24569
H          H       0.73985   0.05344   0.96249   0.25245
H          H       0.60732   0.01469   0.86808   0.09632
H          H       0.80718   0.02133   0.86539   0.07161
H          H       0.46614   0.12470   0.90989   0.07935
H          H       0.64782   0.15445   0.90063   0.05814
H          H       0.21237   0.10605   0.12315   0.07956
H          H       0.16304   0.07852   0.06061   0.09217
H          H       0.32287   0.20168   0.04691   0.05812
H          H       0.27861   0.15401   0.99267   0.07395
H          H       0.69187   0.13886   0.03059   0.10613
H          H       0.71681   0.20729   0.97740   0.11382
H          H       0.57540   0.22686   0.04019   0.11519
H          H       0.29636   0.86441   0.23041   0.08300
H          H       0.15381   0.82455   0.27701   0.08666
H          H       0.55266   0.79163   0.18924   0.08491
H          H       0.46329   0.73129   0.15973   0.08109
H          H       0.93172   0.71716   0.03257   0.10820
H          H       0.81189   0.01015   0.18849   0.11332
H          H       0.01635   0.92744   0.23644   0.11832
H          H       0.68685   0.75181   0.10393   0.11123
H          H       0.87832   0.58544   0.21835   0.12743
H          H       0.12004   0.54921   0.14355   0.10135
H          H       0.89466   0.86337   0.05436   0.10532
H          H       0.09517   0.77824   0.10220   0.12405
H          H       0.95276   0.88541   0.54808   0.24671
H          H       0.70095   0.02796   0.52883   0.24920
H          H       0.03014   0.97578   0.63034   0.07126
H          H       0.95847   0.89642   0.65042   0.06175
H          H       0.64465   0.08289   0.62146   0.05854
H          H       0.85128   0.08231   0.61148   0.08133
H          H       0.25254   0.91442   0.56975   0.08995
H          H       0.20724   0.82855   0.57408   0.07003
H          H       0.62892   0.15515   0.52030   0.07562
H          H       0.82316   0.15768   0.52920   0.09852
H          H       0.67946   0.92247   0.58257   0.10146
H          H       0.68618   0.89689   0.65492   0.11524
H          H       0.55418   0.97714   0.63810   0.11089
H          H       0.64874   0.41354   0.42363   0.24724
H          H       0.75644   0.44615   0.53799   0.25167
H          H       0.48897   0.48498   0.63171   0.09584
H          H       0.69250   0.47838   0.63484   0.07073
H          H       0.50019   0.37540   0.58990   0.07852
H          H       0.70215   0.34535   0.59939   0.05910
H          H       0.44184   0.39409   0.37640   0.07968
H          H       0.30360   0.42179   0.43917   0.09309
H          H       0.57194   0.29825   0.45288   0.05763
H          H       0.42552   0.34661   0.50681   0.07352
H          H       0.86160   0.36107   0.46961   0.10813
H          H       0.90144   0.29250   0.52275   0.11487
H          H       0.84296   0.27307   0.45982   0.11555
H          H       0.39476   0.63663   0.26890   0.08415
H          H       0.25713   0.67574   0.22275   0.08703
H          H       0.53420   0.71130   0.31022   0.08371
H          H       0.35262   0.76984   0.33983   0.08048
H          H       0.68218   0.78310   0.46640   0.10826
H          H       0.01118   0.49065   0.31136   0.11408
H          H       0.18157   0.57309   0.26343   0.11742
H          H       0.54107   0.74999   0.39519   0.11202
H          H       0.67988   0.91713   0.28173   0.12800
H          H       0.81398   0.95165   0.35613   0.10262
H          H       0.81402   0.63778   0.44547   0.10667
H          H       0.97830   0.72221   0.39771   0.12423
C          C       0.48324   0.44275   0.12013   0.04805
C          C       0.57943   0.55430   0.10235   0.03930
C          C       0.37959   0.38129   0.05227  -0.05242
C          C       0.60821   0.62650   0.01140  -0.06660
C          C       0.75911   0.44315   0.12524  -0.27329
C          C       0.29674   0.99289   0.10715  -0.06292
C          C       0.43425   0.87181   0.06974   0.03305
C          C       0.74337   0.92904   0.91348  -0.04941
C          C       0.63091   0.84332   0.98215   0.04656
C          C       0.37029   0.81409   0.99161  -0.26966
C          C       0.75183   0.18387   0.76044  -0.03141
C          C       0.15908   0.05818   0.88137  -0.07565
C          C       0.49082   0.25798   0.80280  -0.03713
C          C       0.23303   0.32957   0.83399   0.25957
C          C       0.08306   0.31154   0.92674  -0.07623
C          C       0.96037   0.36877   0.91663  -0.07791
C          C       0.12409   0.04069   0.83004  -0.07892
C          C       0.92962   0.15164   0.82886   0.25393
C          C       0.00975   0.08687   0.80338  -0.23740
C          C       0.21963   0.29171   0.88614  -0.23597
C          C       0.28487   0.00946   0.90926   0.54751
C          C       0.10985   0.38653   0.82266  -0.20962
C          C       0.97613   0.40599   0.86405  -0.09012
C          C       0.07773   0.12357   0.90578  -0.08520
C          C       0.81484   0.38882   0.96115   0.54631
C          C       0.96537   0.17033   0.87977  -0.21126
C          C       0.04651   0.05753   0.37969   0.04773
C          C       0.23645   0.94583   0.39736   0.03992
C          C       0.81334   0.11858   0.44772  -0.05504
C          C       0.24656   0.87332   0.48832  -0.06665
C          C       0.32783   0.05704   0.37485  -0.27382
C          C       0.39801   0.50727   0.39244  -0.06148
C          C       0.37655   0.62830   0.43015   0.03552
C          C       0.58500   0.57065   0.58659  -0.05266
C          C       0.45614   0.65642   0.51798   0.04986
C          C       0.17600   0.68590   0.50826  -0.27496
C          C       0.69423   0.31551   0.73987  -0.03242
C          C       0.09713   0.44132   0.61837  -0.07226
C          C       0.55297   0.23976   0.69755  -0.03461
C          C       0.39861   0.16795   0.66630   0.25614
C          C       0.32007   0.18757   0.57405  -0.07746
C          C       0.24374   0.13060   0.58392  -0.07744
C          C       0.99386   0.45875   0.66985  -0.08230
C          C       0.90811   0.34809   0.67113   0.25331
C          C       0.89880   0.41273   0.69661  -0.23592
C          C       0.39793   0.20648   0.61449  -0.23405
C          C       0.20114   0.49046   0.59032   0.54834
C          C       0.32005   0.11133   0.67745  -0.20983
C          C       0.24504   0.09279   0.63626  -0.09103
C          C       0.10546   0.37579   0.59417  -0.08597
C          C       0.16344   0.11092   0.53897   0.54776
C          C       0.01339   0.32922   0.62025  -0.21108
C          C       0.51727   0.55695   0.87947   0.04779
C          C       0.42107   0.44529   0.89711   0.03921
C          C       0.62105   0.61830   0.94747  -0.05046
C          C       0.39228   0.37287   0.98833  -0.06648
C          C       0.24104   0.55676   0.87475  -0.27349
C          C       0.70357   0.00713   0.89279  -0.06301
C          C       0.56591   0.12823   0.93026   0.03404
C          C       0.25691   0.07096   0.08646  -0.04881
C          C       0.36921   0.15669   0.01785   0.04638
C          C       0.62976   0.18593   0.00839  -0.27039
C          C       0.24827   0.81612   0.23954  -0.03148
C          C       0.84099   0.94183   0.11867  -0.07587
C          C       0.50941   0.74200   0.19715  -0.03768
C          C       0.76743   0.67030   0.16592   0.25730
C          C       0.91785   0.68812   0.07315  -0.07610
C          C       0.04055   0.63083   0.08325  -0.07816
C          C       0.87595   0.95931   0.17000  -0.07868
C          C       0.07040   0.84835   0.17115   0.25405
C          C       0.99030   0.91313   0.19665  -0.23743
C          C       0.78117   0.70805   0.11372  -0.23400
C          C       0.71536   0.99059   0.09079   0.54835
C          C       0.89062   0.61334   0.17726  -0.20986
C          C       0.02446   0.59377   0.13589  -0.09022
C          C       0.92227   0.87643   0.09425  -0.08487
C          C       0.18608   0.61052   0.03859   0.54683
C          C       0.03462   0.82966   0.12025  -0.21110
C          C       0.95357   0.94243   0.62029   0.04744
C          C       0.76371   0.05411   0.60260   0.03932
C          C       0.18678   0.88134   0.55228  -0.05379
C          C       0.75362   0.12658   0.51168  -0.06649
C          C       0.67220   0.94295   0.62515  -0.27417
C          C       0.60257   0.49260   0.60724  -0.05976
C          C       0.62402   0.37165   0.56966   0.03392
C          C       0.41553   0.42916   0.41305  -0.05081
C          C       0.54437   0.34335   0.48180   0.04826
C          C       0.82429   0.31396   0.49168  -0.27424
C          C       0.30589   0.68452   0.26009  -0.03306
C          C       0.90351   0.55868   0.38146  -0.07126
C          C       0.44709   0.76024   0.30244  -0.03506
C          C       0.60139   0.83205   0.33369   0.25611
C          C       0.67990   0.81242   0.42595  -0.07732
C          C       0.75623   0.86939   0.41608  -0.07761
C          C       0.00666   0.54129   0.32998  -0.08229
C          C       0.09208   0.65197   0.32879   0.25364
C          C       0.10156   0.58736   0.30325  -0.23577
C          C       0.60204   0.79351   0.38550  -0.23434
C          C       0.79968   0.50952   0.40941   0.54837
C          C       0.67994   0.88867   0.32255  -0.20981
C          C       0.75494   0.90720   0.36374  -0.09037
C          C       0.89489   0.62420   0.40573  -0.08622
C          C       0.83664   0.88903   0.46100   0.54767
C          C       0.98678   0.67083   0.37967  -0.21152
C          C       0.62139   0.24929   0.75019   0.05716
C          C       0.37878   0.75071   0.24977   0.05804
N          N       0.50280   0.41772   0.06134  -0.34457
N          N       0.62740   0.55457   0.03912  -0.32109
N          N       0.59544   0.48381   0.12847  -0.14518
N          N       0.60105   0.91206   0.94959  -0.34502
N          N       0.35492   0.94697   0.05703  -0.32331
N          N       0.49340   0.82827   0.02016  -0.14420
N          N       0.98181   0.08181   0.43863  -0.34491
N          N       0.22080   0.94524   0.46063  -0.32032
N          N       0.20813   0.01644   0.37140  -0.14408
N          N       0.46237   0.58746   0.55023  -0.34229
N          N       0.36040   0.55301   0.44265  -0.32230
N          N       0.34200   0.67172   0.47982  -0.14451
N          N       0.49914   0.58108   0.93843  -0.34420
N          N       0.37520   0.44465   0.96042  -0.32232
N          N       0.40475   0.51598   0.87126  -0.14513
N          N       0.39932   0.08798   0.05044  -0.34485
N          N       0.64589   0.05312   0.94291  -0.32298
N          N       0.50667   0.17177   0.97983  -0.14404
N          N       0.01830   0.91810   0.56135  -0.34504
N          N       0.77946   0.05465   0.53934  -0.32040
N          N       0.79196   0.98353   0.62859  -0.14346
N          N       0.53951   0.41184   0.44889  -0.34410
N          N       0.64205   0.44666   0.55706  -0.32342
N          N       0.65829   0.32813   0.52005  -0.14491
O          O       0.81167   0.20077   0.80861  -0.20878
O          O       0.31020   0.03330   0.95504  -0.58450
O          O       0.35642   0.95109   0.88617  -0.56500
O          O       0.72010   0.44849   0.95171  -0.58004
O          O       0.79571   0.34675   0.00344  -0.56483
O          O       0.36369   0.31600   0.79181  -0.20203
O          O       0.81867   0.29917   0.69147  -0.20853
O          O       0.29615   0.46699   0.54446  -0.58968
O          O       0.19005   0.54892   0.61350  -0.56556
O          O       0.12139   0.05066   0.54753  -0.58296
O          O       0.14377   0.15355   0.49703  -0.56569
O          O       0.47639   0.18053   0.70806  -0.20117
O          O       0.18836   0.79922   0.19139  -0.20911
O          O       0.69032   0.96675   0.04495  -0.58567
O          O       0.64368   0.04893   0.11386  -0.56402
O          O       0.28047   0.55057   0.04754  -0.58432
O          O       0.20501   0.65295   0.99647  -0.56633
O          O       0.63663   0.68397   0.20810  -0.20184
O          O       0.18147   0.70090   0.30850  -0.20806
O          O       0.70476   0.53310   0.45529  -0.58500
O          O       0.81039   0.45110   0.38628  -0.56653
O          O       0.87889   0.94924   0.45239  -0.58325
O          O       0.85619   0.84642   0.50296  -0.56535
O          O       0.52363   0.81948   0.29193  -0.20109

