data_crystal

_audit_creation_method 'AiiDA-DDEC plugin'

_cell_length_a        17.34171
_cell_length_b        17.47137
_cell_length_c        17.34554

_cell_angle_alpha     90.34143
_cell_angle_beta     90.00000
_cell_angle_gamma     90.00000

_symmetry_space_group_name_Hall 'P 1'
_symmetry_space_group_name_H-M  'P 1'

loop_
_symmetry_equiv_pos_as_xyz
 'x,y,z'

loop_
_atom_site_label
_atom_site_type_symbol
_atom_site_fract_x
_atom_site_fract_y
_atom_site_fract_z
_atom_site_charge
Zn         Zn      0.42658   0.10857   0.08086   0.94170
Zn         Zn      0.57590   0.16795   0.99412   0.96083
Zn         Zn      0.41702   0.26319   0.98666   0.94436
Zn         Zn      0.51360   0.26178   0.14235   0.95688
Zn         Zn      0.43140   0.60872   0.41244   0.95646
Zn         Zn      0.34950   0.75990   0.34301   0.95127
Zn         Zn      0.78354   0.32277   0.50199   0.94818
Zn         Zn      0.43992   0.76908   0.50254   0.93646
Zn         Zn      0.92658   0.89144   0.91913   0.94172
Zn         Zn      0.07590   0.83206   0.00588   0.96073
Zn         Zn      0.91702   0.73682   0.01333   0.94430
Zn         Zn      0.01360   0.73822   0.85765   0.95681
Zn         Zn      0.93140   0.39129   0.58755   0.95636
Zn         Zn      0.84950   0.24011   0.65699   0.95144
Zn         Zn      0.28354   0.67724   0.49801   0.94824
Zn         Zn      0.93992   0.23093   0.49746   0.93656
H          H       0.69468   0.97578   0.96681   0.13673
H          H       0.74197   0.74491   0.11926   0.11981
H          H       0.67385   0.68236   0.21770   0.10146
H          H       0.55425   0.71392   0.27180   0.10393
H          H       0.47359   0.81747   0.24301   0.09521
H          H       0.49035   0.91410   0.15198   0.12328
H          H       0.65411   0.21339   0.77160   0.13984
H          H       0.56595   0.32491   0.52877   0.12274
H          H       0.44778   0.37690   0.48639   0.10688
H          H       0.33094   0.38578   0.55265   0.09174
H          H       0.30210   0.34967   0.67890   0.09957
H          H       0.38384   0.29604   0.77269   0.12223
H          H       0.70521   0.27478   0.27040   0.13729
H          H       0.93425   0.11624   0.31674   0.12129
H          H      -0.00019   0.02286   0.24389   0.10516
H          H       0.97191   0.97646   0.12002   0.10721
H          H       0.86771   0.00728   0.04011   0.10258
H          H       0.76816   0.09538   0.06130   0.12015
H          H       0.38976   0.99637   0.27028   0.13698
H          H       0.55601   0.94111   0.49212   0.12055
H          H       0.65612   0.00769   0.55444   0.10560
H          H       0.70568   0.12921   0.52752   0.10236
H          H       0.66891   0.21416   0.43051   0.10041
H          H       0.57235   0.20053   0.33693   0.12182
H          H       0.45504   0.48566   0.22410   0.13610
H          H       0.37711   0.46916   0.95290   0.12298
H          H       0.32647   0.55770   0.86457   0.10746
H          H       0.29255   0.68555   0.88504   0.09402
H          H       0.29823   0.75802  -0.00168   0.10328
H          H       0.34299   0.72158   0.12109   0.12345
H          H       0.65444   0.51992   0.47454   0.13781
H          H       0.85537   0.57513   0.66466   0.11836
H          H       0.87466   0.67239   0.75668   0.10084
H          H       0.80317   0.78480   0.77594   0.10900
H          H       0.69072   0.82453   0.71338   0.10410
H          H       0.61982   0.76190   0.61616   0.12422
H          H       0.19468   0.02423   0.03319   0.13652
H          H       0.24197   0.25509   0.88074   0.12014
H          H       0.17385   0.31765   0.78230   0.10181
H          H       0.05426   0.28609   0.72820   0.10411
H          H       0.97359   0.18254   0.75699   0.09518
H          H       0.99035   0.08590   0.84802   0.12303
H          H       0.15411   0.78662   0.22840   0.14013
H          H       0.06595   0.67509   0.47123   0.12272
H          H       0.94778   0.62311   0.51361   0.10674
H          H       0.83094   0.61423   0.44734   0.09166
H          H       0.80210   0.65034   0.32110   0.09953
H          H       0.88384   0.70396   0.22731   0.12224
H          H       0.20521   0.72523   0.72960   0.13712
H          H       0.43425   0.88377   0.68326   0.12133
H          H       0.49981   0.97714   0.75611   0.10529
H          H       0.47191   0.02355   0.87998   0.10751
H          H       0.36771   0.99273   0.95989   0.10264
H          H       0.26816   0.90463   0.93870   0.12015
H          H       0.88976   0.00364   0.72972   0.13698
H          H       0.05601   0.05890   0.50788   0.12077
H          H       0.15612   0.99232   0.44556   0.10580
H          H       0.20569   0.87080   0.47248   0.10225
H          H       0.16892   0.78585   0.56949   0.10005
H          H       0.07235   0.79947   0.66307   0.12159
H          H       0.95504   0.51434   0.77590   0.13624
H          H       0.87711   0.53085   0.04710   0.12320
H          H       0.82647   0.44231   0.13543   0.10761
H          H       0.79255   0.31445   0.11496   0.09395
H          H       0.79823   0.24199   0.00168   0.10290
H          H       0.84299   0.27843   0.87891   0.12326
H          H       0.15444   0.48009   0.52546   0.13799
H          H       0.35537   0.42488   0.33534   0.11850
H          H       0.37466   0.32762   0.24332   0.10095
H          H       0.30317   0.21521   0.22406   0.10893
H          H       0.19072   0.17548   0.28662   0.10385
H          H       0.11982   0.23811   0.38384   0.12086
C          C       0.54977   0.00814   0.03551   0.59685
C          C       0.60287   0.94471   0.04947  -0.16043
C          C       0.67373   0.93701   0.01064  -0.06810
C          C       0.71311   0.87167   0.03647  -0.16231
C          C       0.66694   0.83583   0.09450   0.06997
C          C       0.59675   0.88309   0.10341   0.06739
C          C       0.68695   0.77025   0.13583  -0.07555
C          C       0.64623   0.73324   0.19427  -0.07705
C          C       0.57493   0.75225   0.22683  -0.04015
C          C       0.52642   0.81356   0.20931  -0.07091
C          C       0.53604   0.87143   0.15488  -0.06539
C          C       0.78922   0.84899   0.00792   0.60573
C          C       0.51593   0.24044   0.85153   0.60623
C          C       0.53331   0.25349   0.77016  -0.16157
C          C       0.60663   0.23801   0.73967  -0.06490
C          C       0.61074   0.26185   0.66271  -0.16186
C          C       0.53737   0.29297   0.64158   0.06989
C          C       0.48720   0.28655   0.71042   0.06867
C          C       0.51856   0.32427   0.57003  -0.07166
C          C       0.44838   0.35488   0.54512  -0.07084
C          C       0.37858   0.36080   0.58507  -0.03722
C          C       0.36142   0.33932   0.66073  -0.07868
C          C       0.40954   0.30709   0.71649  -0.07998
C          C       0.68315   0.25814   0.62002   0.59934
C          C       0.67363   0.21052   0.12293   0.59581
C          C       0.73613   0.19346   0.17714  -0.16392
C          C       0.74364   0.23052   0.24911  -0.07234
C          C       0.80812   0.20229   0.28918  -0.16288
C          C       0.84424   0.14516   0.24149   0.06878
C          C       0.79804   0.13938   0.17008   0.06455
C          C       0.91021   0.10303   0.26017  -0.07339
C          C       0.94898   0.04753   0.21661  -0.07515
C          C       0.93190   0.01913   0.14301  -0.03615
C          C       0.87043   0.03827   0.09472  -0.06853
C          C       0.81098   0.09089   0.10702  -0.07044
C          C       0.82996   0.22925   0.36651   0.59983
C          C       0.45638   0.14202   0.24153   0.59536
C          C       0.47179   0.08777   0.30351  -0.16312
C          C       0.43485   0.01625   0.30876  -0.06833
C          C       0.46507   0.97425   0.37071  -0.16256
C          C       0.52393   0.01965   0.40696   0.07044
C          C       0.52843   0.09206   0.36368   0.06820
C          C       0.56942   0.99763   0.46963  -0.07662
C          C       0.62892   0.03747   0.50652  -0.07595
C          C       0.65875   0.10992   0.49023  -0.03754
C          C       0.63652   0.16087   0.43257  -0.06965
C          C       0.57898   0.15302   0.37676  -0.06967
C          C       0.43997   0.89668   0.38990   0.59946
C          C       0.43424   0.39973   0.08663   0.60095
C          C       0.41677   0.48019   0.10249  -0.16039
C          C       0.42973   0.51428   0.17498  -0.06876
C          C       0.40386   0.59050   0.17523  -0.16070
C          C       0.40671   0.63820   0.24481   0.60120
C          C       0.38364   0.53683   0.05306   0.06818
C          C       0.36532   0.52640   0.97524  -0.07340
C          C       0.33514   0.57914   0.92309  -0.07462
C          C       0.31470   0.65563   0.93540  -0.03527
C          C       0.31863   0.69920   0.00317  -0.07167
C          C       0.34516   0.67783   0.07607  -0.06825
C          C       0.37470   0.60738   0.09987   0.06889
C          C       0.56519   0.65182   0.50909   0.60385
C          C       0.64015   0.62789   0.54017  -0.16037
C          C       0.67681   0.55975   0.51711  -0.06932
C          C       0.74667   0.55039   0.55735  -0.16364
C          C       0.75472   0.61337   0.60999   0.06458
C          C       0.68736   0.66385   0.59799   0.06589
C          C       0.81340   0.62157   0.66469  -0.07267
C          C       0.82482   0.67976   0.71907  -0.06835
C          C       0.78138   0.74615   0.73131  -0.03521
C          C       0.71421   0.76991   0.69373  -0.07521
C          C       0.67206   0.73321   0.63557  -0.07881
C          C       0.79756   0.48461   0.54484   0.59577
C          C       0.04977   0.99187   0.96449   0.59660
C          C       0.10287   0.05530   0.95053  -0.16040
C          C       0.17374   0.06300   0.98936  -0.06827
C          C       0.21311   0.12834   0.96353  -0.16208
C          C       0.16694   0.16418   0.90550   0.07001
C          C       0.09675   0.11692   0.89659   0.06746
C          C       0.18695   0.22976   0.86417  -0.07587
C          C       0.14623   0.26676   0.80573  -0.07692
C          C       0.07493   0.24775   0.77317  -0.04021
C          C       0.02642   0.18645   0.79069  -0.07092
C          C       0.03604   0.12858   0.84512  -0.06541
C          C       0.28922   0.15102   0.99208   0.60567
C          C       0.01593   0.75957   0.14847   0.60606
C          C       0.03331   0.74651   0.22984  -0.16163
C          C       0.10663   0.76200   0.26033  -0.06495
C          C       0.11074   0.73816   0.33729  -0.16198
C          C       0.03737   0.70704   0.35842   0.06991
C          C       0.98720   0.71345   0.28958   0.06857
C          C       0.01856   0.67573   0.42996  -0.07165
C          C       0.94838   0.64513   0.45488  -0.07085
C          C       0.87858   0.63921   0.41493  -0.03724
C          C       0.86141   0.66069   0.33927  -0.07877
C          C       0.90954   0.69292   0.28351  -0.07974
C          C       0.18315   0.74187   0.37998   0.59933
C          C       0.17363   0.78949   0.87707   0.59628
C          C       0.23613   0.80654   0.82286  -0.16424
C          C       0.24364   0.76948   0.75089  -0.07240
C          C       0.30812   0.79772   0.71081  -0.16293
C          C       0.34424   0.85485   0.75851   0.06891
C          C       0.29804   0.86063   0.82992   0.06476
C          C       0.41021   0.89698   0.73983  -0.07361
C          C       0.44898   0.95248   0.78339  -0.07491
C          C       0.43190   0.98088   0.85699  -0.03639
C          C       0.37044   0.96174   0.90528  -0.06831
C          C       0.31099   0.90912   0.89298  -0.07062
C          C       0.32996   0.77076   0.63349   0.59973
C          C       0.95638   0.85799   0.75847   0.59588
C          C       0.97178   0.91224   0.69649  -0.16368
C          C       0.93485   0.98375   0.69124  -0.06803
C          C       0.96507   0.02576   0.62929  -0.16229
C          C       0.02393   0.98036   0.59304   0.07032
C          C       0.02843   0.90794   0.63632   0.06825
C          C       0.06942   0.00238   0.53037  -0.07654
C          C       0.12892   0.96254   0.49348  -0.07602
C          C       0.15875   0.89009   0.50977  -0.03748
C          C       0.13652   0.83914   0.56742  -0.06946
C          C       0.07898   0.84699   0.62324  -0.06974
C          C       0.93996   0.10333   0.61010   0.59922
C          C       0.93424   0.60028   0.91337   0.60101
C          C       0.91677   0.51982   0.89751  -0.16019
C          C       0.92973   0.48573   0.82502  -0.06865
C          C       0.90386   0.40951   0.82477  -0.16094
C          C       0.90671   0.36181   0.75519   0.60130
C          C       0.88364   0.46318   0.94694   0.06804
C          C       0.86532   0.47361   0.02476  -0.07314
C          C       0.83513   0.42086   0.07690  -0.07467
C          C       0.81470   0.34438   0.06460  -0.03550
C          C       0.81863   0.30081   0.99683  -0.07152
C          C       0.84516   0.32218   0.92393  -0.06828
C          C       0.87470   0.39263   0.90013   0.06884
C          C       0.06519   0.34819   0.49091   0.60427
C          C       0.14015   0.37212   0.45983  -0.16046
C          C       0.17681   0.44025   0.48289  -0.06921
C          C       0.24667   0.44961   0.44265  -0.16365
C          C       0.25472   0.38664   0.39001   0.06441
C          C       0.18736   0.33616   0.40201   0.06615
C          C       0.31340   0.37843   0.33531  -0.07240
C          C       0.32482   0.32025   0.28093  -0.06842
C          C       0.28138   0.25386   0.26869  -0.03540
C          C       0.21421   0.23009   0.30627  -0.07509
C          C       0.17206   0.26680   0.36443  -0.07668
C          C       0.29756   0.51539   0.45516   0.59587
O          O       0.48408   0.20070   0.05152  -1.00385
O          O       0.48910   0.01493   0.07834  -0.54986
O          O       0.56627   0.05441   0.98050  -0.57960
O          O       0.82776   0.90110   0.97232  -0.55252
O          O       0.81234   0.78017   0.01950  -0.55334
O          O       0.57069   0.20956   0.89073  -0.56040
O          O       0.44991   0.26104   0.87825  -0.55348
O          O       0.73799   0.22016   0.65178  -0.56719
O          O       0.68777   0.29220   0.55454  -0.55722
O          O       0.66819   0.17067   0.06003  -0.55573
O          O       0.62805   0.26564   0.14092  -0.56996
O          O       0.89056   0.20125   0.39852  -0.55071
O          O       0.78542   0.27995   0.39738  -0.55644
O          O       0.49614   0.20438   0.23844  -0.55151
O          O       0.40358   0.12452   0.19209  -0.58126
O          O       0.46466   0.86709   0.45298  -0.55191
O          O       0.39477   0.86333   0.34118  -0.55424
O          O       0.46499   0.36252   0.14289  -0.55636
O          O       0.41780   0.37120   0.02007  -0.54804
O          O       0.44937   0.61385   0.30011  -0.57607
O          O       0.36731   0.70090   0.24706  -0.55024
O          O       0.37527   0.70390   0.43763  -1.00107
O          O       0.53907   0.71845   0.52730  -0.55482
O          O       0.53093   0.60274   0.46503  -0.55687
O          O       0.86224   0.48107   0.58164  -0.55597
O          O       0.77391   0.43451   0.49584  -0.56006
O          O       0.98408   0.79931   0.94848  -1.00383
O          O       0.98910   0.98508   0.92166  -0.54962
O          O       0.06628   0.94559   0.01950  -0.57961
O          O       0.32776   0.09891   0.02768  -0.55286
O          O       0.31234   0.21984   0.98050  -0.55297
O          O       0.07070   0.79045   0.10927  -0.56010
O          O       0.94991   0.73897   0.12175  -0.55355
O          O       0.23799   0.77985   0.34821  -0.56669
O          O       0.18777   0.70780   0.44546  -0.55753
O          O       0.16820   0.82934   0.93997  -0.55572
O          O       0.12805   0.73437   0.85908  -0.57041
O          O       0.39056   0.79876   0.60148  -0.55043
O          O       0.28542   0.72006   0.60262  -0.55663
O          O       0.99614   0.79563   0.76156  -0.55206
O          O       0.90358   0.87549   0.80791  -0.58120
O          O       0.96466   0.13292   0.54702  -0.55190
O          O       0.89477   0.13667   0.65882  -0.55415
O          O       0.96499   0.63749   0.85711  -0.55635
O          O       0.91780   0.62881   0.97993  -0.54816
O          O       0.94937   0.38616   0.69989  -0.57598
O          O       0.86731   0.29911   0.75294  -0.55046
O          O       0.87527   0.29611   0.56237  -1.00107
O          O       0.03907   0.28156   0.47270  -0.55480
O          O       0.03093   0.39726   0.53497  -0.55663
O          O       0.36224   0.51894   0.41836  -0.55621
O          O       0.27391   0.56550   0.50416  -0.55998

