data_crystal

_audit_creation_method 'AiiDA-DDEC plugin'

_cell_length_a        14.89325
_cell_length_b        18.11237
_cell_length_c        18.11325

_cell_angle_alpha     89.76519
_cell_angle_beta     89.74013
_cell_angle_gamma     89.74689

_symmetry_space_group_name_Hall 'P 1'
_symmetry_space_group_name_H-M  'P 1'

loop_
_symmetry_equiv_pos_as_xyz
 'x,y,z'

loop_
_atom_site_label
_atom_site_type_symbol
_atom_site_fract_x
_atom_site_fract_y
_atom_site_fract_z
_atom_site_charge
Cu         Cu      0.27595   0.01072   0.48158   0.34595
Cu         Cu      0.27577   0.48157   0.01101   0.35052
Cu         Cu      0.78041   0.01717   0.01734   0.30739
Cu         Cu      0.77381   0.48615   0.48587   0.42960
Cu         Cu      0.22061   0.98275   0.98277   0.30569
Cu         Cu      0.23144   0.51325   0.51399   0.44092
Cu         Cu      0.72249   0.98892   0.51836   0.35374
Cu         Cu      0.72190   0.51838   0.98903   0.35620
Cu         Cu      0.49845   0.00073   0.49876   0.52562
Cu         Cu      0.49783   0.49863   0.00129   0.53394
Cu         Cu      0.00179  -0.00128  -0.00108   0.51671
Cu         Cu      0.00275   0.50136   0.50172   0.51864
H          H       0.51278   0.98396   0.68132   0.14503
H          H       0.22897   0.02836   0.67021   0.13957
H          H       0.45548   0.11126   0.79276   0.12868
H          H       0.26264   0.93974   0.81929   0.13354
H          H       0.50935   0.53755   0.82191   0.11214
H          H       0.22973   0.48840   0.83449   0.10863
H          H       0.44890   0.39196   0.71696   0.11002
H          H       0.26681   0.56575   0.67018   0.11840
H          H       0.01147   0.81717   0.97260   0.12188
H          H       0.72948   0.83365   0.02035   0.11662
H          H       0.95425   0.71373   0.10914   0.12120
H          H       0.76471   0.67530   0.93908   0.12619
H          H       0.00936   0.68325   0.52917   0.13086
H          H       0.72807   0.66807   0.48185   0.12758
H          H       0.94905   0.78675   0.39199   0.12448
H          H       0.76000   0.82656   0.56313   0.13151
H          H       0.98823   0.02693   0.18166   0.12483
H          H       0.27074   0.97935   0.16728   0.11749
H          H       0.04522   0.89083   0.28669   0.12205
H          H       0.23477   0.06114   0.32429   0.12638
H          H       0.99033   0.47253   0.31896   0.13482
H          H       0.27285   0.51797   0.33023   0.13007
H          H       0.04999   0.60791   0.21288   0.12599
H          H       0.23968   0.43651   0.17428   0.13201
H          H       0.49021   0.17952   0.46210   0.11252
H          H       0.77003   0.16519   0.51191   0.10753
H          H       0.55106   0.28375   0.60815   0.11037
H          H       0.73405   0.32988   0.43444   0.12012
H          H       0.48720   0.31751   0.01640   0.14394
H          H       0.77072   0.33043   0.97185   0.13835
H          H       0.54464   0.20679   0.88884   0.12856
H          H       0.73781   0.18051   0.06011   0.13372
H          H       0.48746   0.01629   0.31780   0.14353
H          H       0.77098   0.97195   0.33030   0.13828
H          H       0.54477   0.88892   0.20716   0.12848
H          H       0.73785   0.06019   0.18042   0.13395
H          H       0.49047   0.46205   0.17996   0.11157
H          H       0.76991   0.51215   0.16531   0.10738
H          H       0.55138   0.60820   0.28336   0.11017
H          H       0.73363   0.43452   0.33018   0.11949
H          H       0.98847   0.18138   0.02675   0.12360
H          H       0.27081   0.16721   0.97987   0.11730
H          H       0.04548   0.28610   0.89082   0.12231
H          H       0.23461   0.32434   0.06119   0.12583
H          H       0.99078   0.31933   0.47135   0.13090
H          H       0.27289   0.33036   0.51679   0.12607
H          H       0.05048   0.21359   0.60780   0.12376
H          H       0.23920   0.17345   0.43656   0.12996
H          H       0.01175   0.97285   0.81705   0.12434
H          H       0.72968   0.02094   0.83359   0.11823
H          H       0.95456   0.10930   0.71329   0.12229
H          H       0.76489   0.93895   0.67555   0.12696
H          H       0.00946   0.52877   0.68367   0.13308
H          H       0.72780   0.48151   0.66831   0.12940
H          H       0.94914   0.39201   0.78734   0.12491
H          H       0.75955   0.56299   0.82643   0.13277
H          H       0.50947   0.82156   0.53781   0.11305
H          H       0.22988   0.83463   0.48870   0.10844
H          H       0.44868   0.71641   0.39175   0.10894
H          H       0.26665   0.66996   0.56554   0.11699
H          H       0.51267   0.68107   0.98394   0.14436
H          H       0.22892   0.67018   0.02782   0.13739
H          H       0.45566   0.79283   0.11107   0.12864
H          H       0.26263   0.81930   0.93974   0.13345
C          C       0.44520   0.99691   0.66328   0.05448
C          C       0.29892   0.01854   0.65640   0.04647
C          C       0.40477   0.07665   0.81911   0.02868
C          C       0.30841   0.98476   0.83203   0.04279
C          C       0.44464   0.51445   0.83600   0.01784
C          C       0.30124   0.49249   0.84503   0.01661
C          C       0.39995   0.42574   0.68707   0.04857
C          C       0.30969   0.51789   0.66246   0.05618
C          C       0.94682   0.83426   0.99414  -0.00819
C          C       0.80027   0.84480   0.01537  -0.00005
C          C       0.90497   0.68461   0.07566   0.02944
C          C       0.81011   0.66517   0.98496   0.04381
C          C       0.94540   0.66647   0.50809  -0.00306
C          C       0.79934   0.65663   0.48646   0.02190
C          C       0.89950   0.81578   0.42534   0.04017
C          C       0.80546   0.83546   0.51700   0.04850
C          C       0.05342   0.00563   0.16481  -0.00315
C          C       0.20022   0.98471   0.15581   0.00300
C          C       0.09420   0.92474   0.31550   0.02838
C          C       0.18853   0.01593   0.33488   0.04339
C          C       0.05524   0.49280   0.33507   0.00596
C          C       0.20189   0.51350   0.34279   0.02840
C          C       0.09943   0.57426   0.18434   0.03876
C          C       0.19365   0.48247   0.16511   0.04744
C          C       0.55459   0.16539   0.48568  -0.00160
C          C       0.69842   0.15544   0.50778   0.01021
C          C       0.60026   0.31320   0.57405   0.04833
C          C       0.69077   0.33775   0.48171   0.05409
C          C       0.55444   0.33583   0.00325   0.05217
C          C       0.70059   0.34364   0.98164   0.04783
C          C       0.59563   0.18063   0.92340   0.02888
C          C       0.69193   0.16769   0.01514   0.04108
C          C       0.55468   0.00316   0.33599   0.05274
C          C       0.70086   0.98152   0.34382   0.04850
C          C       0.59576   0.92325   0.18075   0.03023
C          C       0.69198   0.01511   0.16780   0.04219
C          C       0.55468   0.48543   0.16548   0.00409
C          C       0.69824   0.50783   0.15533   0.01208
C          C       0.60065   0.57453   0.31323   0.04720
C          C       0.69100   0.48215   0.33779   0.05253
C          C       0.05356   0.16468   0.00546  -0.00692
C          C       0.20033   0.15544   0.98468  -0.00360
C          C       0.09451   0.31527   0.92436   0.02817
C          C       0.18918   0.33456   0.01525   0.04490
C          C       0.05526   0.33482   0.49272  -0.00628
C          C       0.20187   0.34271   0.51283   0.01803
C          C       0.09998   0.18480   0.57435   0.04086
C          C       0.19352   0.16447   0.48254   0.04913
C          C       0.94698   0.99403   0.83434  -0.00292
C          C       0.80047   0.01560   0.84476   0.00439
C          C       0.90523   0.07562   0.68448   0.02834
C          C       0.81052   0.98464   0.66531   0.04305
C          C       0.94522   0.50802   0.66648   0.00369
C          C       0.79901   0.48645   0.65699   0.02746
C          C       0.89995   0.42577   0.81619   0.04068
C          C       0.80575   0.51737   0.83573   0.04532
C          C       0.44452   0.83601   0.51500   0.02842
C          C       0.30140   0.84505   0.49337   0.02809
C          C       0.40022   0.68652   0.42600   0.05171
C          C       0.31009   0.66188   0.51798   0.05951
C          C       0.44515   0.66314   0.99728   0.05415
C          C       0.29885   0.65649   0.01842   0.04677
C          C       0.40472   0.81909   0.07650   0.02820
C          C       0.30854   0.83212   0.98459   0.04066
N          N       0.42261   0.00533   0.59378  -0.11924
N          N       0.33182   0.01658   0.58907  -0.11712
N          N       0.36821   0.00606   0.70615   0.06933
N          N       0.37683   0.07660   0.88823  -0.19332
N          N       0.31501   0.01922   0.89576  -0.13184
N          N       0.36453   0.01869   0.78155   0.06746
N          N       0.42927   0.48109   0.90242  -0.22476
N          N       0.33927   0.46857   0.90828  -0.19587
N          N       0.36442   0.52541   0.79808  -0.08374
N          N       0.37395   0.41721   0.61728  -0.23750
N          N       0.31651   0.47660   0.60218  -0.18393
N          N       0.36064   0.48668   0.71553  -0.02117
N          N       0.92747   0.90390   0.01244  -0.16142
N          N       0.83747   0.91050   0.02445  -0.14789
N          N       0.86612   0.79314   0.99099   0.01033
N          N       0.88060   0.61464   0.07946  -0.20159
N          N       0.81955   0.60262   0.02214  -0.14696
N          N       0.86231   0.71844   0.01657   0.06684
N          N       0.92687   0.59725   0.48835  -0.15739
N          N       0.83653   0.59126   0.47698  -0.14492
N          N       0.86425   0.70762   0.50993   0.01644
N          N       0.87156   0.88470   0.41932  -0.21542
N          N       0.81114   0.89686   0.47749  -0.16079
N          N       0.85963   0.78248   0.48578   0.07167
N          N       0.07380   0.98690   0.09552  -0.16156
N          N       0.16406   0.97525   0.08985  -0.14541
N          N       0.13344   0.00818   0.20675   0.01520
N          N       0.11874   0.92099   0.38541  -0.19856
N          N       0.18020   0.97797   0.39720  -0.14325
N          N       0.13756   0.98334   0.28139   0.06806
N          N       0.07581   0.51150   0.40393  -0.15201
N          N       0.16626   0.52209   0.40871  -0.13778
N          N       0.13524   0.49208   0.29268   0.02411
N          N       0.12775   0.58004   0.11553  -0.21155
N          N       0.18847   0.52210   0.10376  -0.15740
N          N       0.13969   0.51417   0.21800   0.07776
N          N       0.56997   0.09845   0.51789  -0.22115
N          N       0.65977   0.09219   0.53041  -0.19719
N          N       0.63563   0.20348   0.47545  -0.07059
N          N       0.62730   0.38245   0.58313  -0.23623
N          N       0.68508   0.39778   0.52394  -0.18740
N          N       0.64015   0.28419   0.51341  -0.00793
N          N       0.57652   0.40551   0.99493  -0.12180
N          N       0.66729   0.41073   0.98347  -0.11685
N          N       0.63191   0.29340   0.99420   0.06818
N          N       0.62363   0.11164   0.92322  -0.19633
N          N       0.68563   0.10404   0.98050  -0.13081
N          N       0.63621   0.21821   0.98097   0.07014
N          N       0.57680   0.99493   0.40571  -0.11799
N          N       0.66744   0.98356   0.41095  -0.11663
N          N       0.63211   0.99419   0.29354   0.06867
N          N       0.62348   0.92334   0.11157  -0.19461
N          N       0.68553   0.98062   0.10410  -0.13072
N          N       0.63587   0.98126   0.21824   0.06796
N          N       0.56950   0.51778   0.09866  -0.22192
N          N       0.65941   0.53040   0.09212  -0.19728
N          N       0.63569   0.47543   0.20342  -0.07236
N          N       0.62706   0.58327   0.38267  -0.23422
N          N       0.68466   0.52393   0.39801  -0.18546
N          N       0.63930   0.51312   0.28450  -0.01026
N          N       0.07367   0.09528   0.98711  -0.16191
N          N       0.16387   0.08938   0.97566  -0.14576
N          N       0.13358   0.20649   0.00878   0.01276
N          N       0.11869   0.38537   0.92096  -0.19923
N          N       0.17952   0.39725   0.97846  -0.14513
N          N       0.13682   0.28141   0.98375   0.06595
N          N       0.07566   0.40369   0.51276  -0.16090
N          N       0.16592   0.40841   0.52344  -0.14581
N          N       0.13573   0.29268   0.48923   0.01315
N          N       0.12807   0.11586   0.58067  -0.21790
N          N       0.18858   0.10345   0.52269  -0.16195
N          N       0.14009   0.21779   0.51393   0.07239
N          N       0.92751   0.01212   0.90396  -0.15962
N          N       0.83743   0.02418   0.91048  -0.14627
N          N       0.86642   0.99192   0.79313   0.01622
N          N       0.88075   0.07922   0.61458  -0.19724
N          N       0.81953   0.02202   0.60281  -0.14494
N          N       0.86249   0.01664   0.71856   0.06824
N          N       0.92621   0.48900   0.59731  -0.15494
N          N       0.83579   0.47740   0.59155  -0.14227
N          N       0.86426   0.50871   0.70788   0.02128
N          N       0.87140   0.41931   0.88483  -0.21408
N          N       0.81074   0.47732   0.89697  -0.15999
N          N       0.85886   0.48525   0.78249   0.07593
N          N       0.42926   0.90246   0.48081  -0.22203
N          N       0.33953   0.90819   0.46821  -0.19658
N          N       0.36434   0.79889   0.52670  -0.09794
N          N       0.37317   0.61692   0.41673  -0.24222
N          N       0.31575   0.60176   0.47611  -0.19079
N          N       0.35957   0.71478   0.48573  -0.03607
N          N       0.42237   0.59370   0.00563  -0.12290
N          N       0.33143   0.58913   0.01687  -0.11856
N          N       0.36816   0.70619   0.00589   0.06871
N          N       0.37691   0.88813   0.07655  -0.19424
N          N       0.31489   0.89579   0.01932  -0.13159
N          N       0.36434   0.78152   0.01874   0.06755
Cl         Cl      0.37529   0.08702   0.40396  -0.60051
Cl         Cl      0.37529   0.40408   0.08736  -0.60011
Cl         Cl      0.87280   0.09558   0.09544  -0.60562
Cl         Cl      0.87847   0.40992   0.40939  -0.61352
Cl         Cl      0.12627   0.90588   0.90584  -0.59971
Cl         Cl      0.12041   0.58776   0.58812  -0.60957
Cl         Cl      0.62541   0.91254   0.59713  -0.60497
Cl         Cl      0.62550   0.59714   0.91223  -0.60390

