data_crystal

_audit_creation_method 'AiiDA-DDEC plugin'

_cell_length_a        15.43927
_cell_length_b        18.97320
_cell_length_c        30.50251

_cell_angle_alpha     96.46942
_cell_angle_beta     90.09528
_cell_angle_gamma     114.18633

_symmetry_space_group_name_Hall 'P 1'
_symmetry_space_group_name_H-M  'P 1'

loop_
_symmetry_equiv_pos_as_xyz
 'x,y,z'

loop_
_atom_site_label
_atom_site_type_symbol
_atom_site_fract_x
_atom_site_fract_y
_atom_site_fract_z
_atom_site_charge
Nd         Nd      0.33733   0.58950   0.64562   1.97131
Nd         Nd      0.45904   0.83013   0.65555   1.97107
Nd         Nd      0.25180   0.58791   0.14470   1.97345
Nd         Nd      0.37447   0.83091   0.15455   1.97410
Nd         Nd      0.74890   0.41271   0.85522   1.97448
Nd         Nd      0.62564   0.16953   0.84551   1.97321
Nd         Nd      0.66276   0.41056   0.35435   1.97141
Nd         Nd      0.54142   0.17016   0.34451   1.97104
H          H       0.40260   0.83353   0.80974   0.13797
H          H       0.39518   0.60465   0.77393   0.12672
H          H       0.38579   0.58143   0.85277   0.11668
H          H       0.36713   0.57513   0.93012   0.13219
H          H       0.34636   0.81485   0.00740   0.14907
H          H       0.33406   0.58431   0.01003   0.12630
H          H       0.72734   0.83926   0.65643   0.12995
H          H       0.63975   0.59159   0.65041   0.14324
H          H       0.89770   0.86108   0.65717   0.12755
H          H       0.05274   0.85972   0.65468   0.12545
H          H       0.19981   0.83590   0.65257   0.12443
H          H       0.03625   0.58998   0.65297   0.14350
H          H       0.07872   0.34067   0.59565   0.14546
H          H       0.13614   0.40263   0.73621   0.12925
H          H       0.98068   0.29585   0.75016   0.10574
H          H       0.82585   0.18887   0.75124   0.11350
H          H       0.69879   0.05776   0.59840   0.15337
H          H       0.67263   0.07048   0.73931   0.12409
H          H       0.43235   0.83271   0.30858   0.13803
H          H       0.20841   0.60383   0.27365   0.12807
H          H       0.19492   0.58183   0.35266   0.11674
H          H       0.20665   0.57588   0.42950   0.13091
H          H       0.46976   0.81488   0.50717   0.14711
H          H       0.24779   0.58532   0.50964   0.12660
H          H       0.11520   0.84007   0.15728   0.12729
H          H       0.95399   0.59237   0.15169   0.14373
H          H       0.96643   0.86142   0.15737   0.12649
H          H       0.80863   0.85940   0.15467   0.12606
H          H       0.63730   0.83434   0.15214   0.12222
H          H       0.55555   0.58853   0.15172   0.14346
H          H       0.26239   0.33972   0.09571   0.14866
H          H       0.26555   0.40163   0.23612   0.12892
H          H       0.31606   0.29644   0.25063   0.10598
H          H       0.36306   0.18905   0.25204   0.11360
H          H       0.35723   0.05739   0.09929   0.15361
H          H       0.39504   0.06944   0.24018   0.12294
H          H       0.56761   0.16731   0.69151   0.13784
H          H       0.79164   0.39614   0.72642   0.12774
H          H       0.80514   0.41811   0.64742   0.11704
H          H       0.79351   0.42412   0.57067   0.13064
H          H       0.53046   0.18549   0.49278   0.14927
H          H       0.75251   0.41509   0.49059   0.12669
H          H       0.88483   0.15985   0.84282   0.12654
H          H       0.04570   0.40749   0.84832   0.14375
H          H       0.03363   0.13857   0.84267   0.12659
H          H       0.19135   0.14065   0.84535   0.12612
H          H       0.36265   0.16572   0.84790   0.12217
H          H       0.44443   0.41151   0.84833   0.14359
H          H       0.73755   0.66039   0.90415   0.14526
H          H       0.73450   0.59876   0.76371   0.12877
H          H       0.68411   0.70410   0.74930   0.10579
H          H       0.63666   0.81175   0.74813   0.11347
H          H       0.64312   0.94259   0.90113   0.15300
H          H       0.60438   0.93113   0.76028   0.12208
H          H       0.59714   0.16637   0.19014   0.13766
H          H       0.60487   0.39530   0.22613   0.12667
H          H       0.61424   0.41870   0.14733   0.11659
H          H       0.63228   0.42509   0.07023   0.13184
H          H       0.65467   0.18648   0.99233   0.14515
H          H       0.66614   0.41688   0.99038   0.12648
H          H       0.27237   0.16051   0.34353   0.12973
H          H       0.36034   0.40825   0.34953   0.14285
H          H       0.10208   0.13890   0.34281   0.12761
H          H       0.94716   0.14041   0.34534   0.12532
H          H       0.80017   0.16437   0.34748   0.12444
H          H       0.96415   0.41026   0.34701   0.14393
H          H       0.92160   0.65957   0.40442   0.14937
H          H       0.86416   0.59755   0.26380   0.12911
H          H       0.01951   0.70439   0.24989   0.10594
H          H       0.17440   0.81183   0.24884   0.11329
H          H       0.30157   0.94215   0.40182   0.15327
H          H       0.32775   0.93002   0.26090   0.12536
C          C       0.40523   0.73325   0.74004   0.63620
C          C       0.40052   0.72033   0.78723  -0.04538
C          C       0.39954   0.77919   0.81945  -0.08584
C          C       0.39591   0.64970   0.79955  -0.07337
C          C       0.39226   0.76435   0.86296  -0.11765
C          C       0.39057   0.63659   0.84372  -0.10633
C          C       0.38722   0.69397   0.87594   0.05905
C          C       0.37345   0.68947   0.92329   0.06869
C          C       0.36716   0.75611   0.94570  -0.10792
C          C       0.36321   0.62741   0.94671  -0.10211
C          C       0.35106   0.76313   0.99029  -0.08417
C          C       0.34446   0.63244   0.99133  -0.07178
C          C       0.33817   0.69944   0.01315  -0.04909
C          C       0.31659   0.70250   0.06049   0.65087
C          C       0.57263   0.70454   0.65234   0.64479
C          C       0.67387   0.71484   0.65354  -0.04111
C          C       0.74693   0.79027   0.65572  -0.07566
C          C       0.69628   0.64990   0.65235  -0.08092
C          C       0.84230   0.80240   0.65615  -0.11289
C          C       0.79152   0.66328   0.65371  -0.11372
C          C       0.86546   0.73822   0.65520   0.05332
C          C       0.96027   0.73770   0.65517   0.05004
C          C       0.04832   0.80100   0.65457  -0.11032
C          C       0.95779   0.66262   0.65478  -0.11487
C          C       0.13068   0.78775   0.65334  -0.06681
C          C       0.03891   0.64828   0.65357  -0.07798
C          C       0.12691   0.71237   0.65275  -0.03490
C          C       0.21698   0.70095   0.65093   0.65151
C          C       0.20644   0.44361   0.65784   0.55912
C          C       0.11548   0.37793   0.66542  -0.02817
C          C       0.05634   0.33032   0.62900  -0.08485
C          C       0.08800   0.36512   0.70882  -0.07441
C          C       0.97076   0.27121   0.63732  -0.11392
C          C       0.00118   0.30548   0.71648  -0.11767
C          C       0.94138   0.25769   0.68046   0.05004
C          C       0.84922   0.19078   0.68115   0.04752
C          C       0.81084   0.15365   0.63852  -0.11777
C          C       0.79922   0.16079   0.71789  -0.12060
C          C       0.72750   0.08672   0.63133  -0.07391
C          C       0.71389   0.09421   0.71141  -0.07534
C          C       0.67912   0.05660   0.66863  -0.02953
C          C       0.59218   0.98274   0.66231   0.55171
C          C       0.32742   0.73122   0.23908   0.63867
C          C       0.31997   0.71953   0.28653  -0.04499
C          C       0.38071   0.77864   0.31861  -0.08693
C          C       0.25341   0.64914   0.29910  -0.07328
C          C       0.37355   0.76433   0.36228  -0.11796
C          C       0.24587   0.63667   0.34335  -0.10830
C          C       0.30742   0.69420   0.37542   0.05832
C          C       0.31646   0.68979   0.42280   0.06553
C          C       0.39026   0.75613   0.44526  -0.10885
C          C       0.26352   0.62796   0.44619  -0.10131
C          C       0.41290   0.76323   0.48998  -0.08226
C          C       0.28670   0.63315   0.49093  -0.07269
C          C       0.36053   0.69996   0.51295  -0.04564
C          C       0.38319   0.70289   0.56066   0.64817
C          C       0.13439   0.70511   0.15343   0.64394
C          C       0.04364   0.71565   0.15453  -0.03998
C          C       0.04630   0.79096   0.15643  -0.07363
C          C       0.95597   0.65058   0.15329  -0.08196
C          C       0.96293   0.80283   0.15657  -0.11127
C          C       0.87407   0.66371   0.15424  -0.11295
C          C       0.87520   0.73850   0.15546   0.05164
C          C       0.77955   0.73750   0.15506   0.05068
C          C       0.75444   0.80040   0.15438  -0.11199
C          C       0.70677   0.66218   0.15441  -0.11499
C          C       0.65847   0.78646   0.15286  -0.06872
C          C       0.61103   0.64715   0.15268  -0.07914
C          C       0.58670   0.71079   0.15191  -0.03284
C          C       0.48471   0.69842   0.14980   0.64912
C          C       0.23506   0.44167   0.15769   0.55720
C          C       0.26181   0.37694   0.16544  -0.02631
C          C       0.27438   0.32986   0.12921  -0.08616
C          C       0.27691   0.36453   0.20890  -0.07488
C          C       0.30160   0.27152   0.13787  -0.11692
C          C       0.30493   0.30569   0.21688  -0.11828
C          C       0.31716   0.25800   0.18108   0.05067
C          C       0.34139   0.19081   0.18196   0.04769
C          C       0.34185   0.15345   0.13938  -0.11828
C          C       0.36093   0.16062   0.21874  -0.12263
C          C       0.35749   0.08643   0.13216  -0.07441
C          C       0.37839   0.09364   0.21225  -0.07358
C          C       0.37519   0.05607   0.16943  -0.03067
C          C       0.38814   0.98238   0.16289   0.55300
C          C       0.67264   0.26869   0.76103   0.63959
C          C       0.68004   0.28043   0.71357  -0.04616
C          C       0.61927   0.22133   0.68146  -0.08608
C          C       0.74662   0.35080   0.70098  -0.07250
C          C       0.62638   0.23563   0.63777  -0.11814
C          C       0.75415   0.36327   0.65672  -0.10875
C          C       0.69258   0.30575   0.62464   0.05846
C          C       0.68364   0.31026   0.57726   0.06504
C          C       0.60985   0.24398   0.55477  -0.10836
C          C       0.73663   0.37214   0.55391  -0.10015
C          C       0.58726   0.23704   0.51006  -0.08432
C          C       0.71346   0.36712   0.50919  -0.07280
C          C       0.63957   0.30037   0.48713  -0.04541
C          C       0.61676   0.29729   0.43940   0.64798
C          C       0.86551   0.29473   0.84655   0.64401
C          C       0.95625   0.28424   0.84546  -0.04067
C          C       0.95369   0.20897   0.84360  -0.07176
C          C       0.04388   0.34934   0.84670  -0.08270
C          C       0.03709   0.19715   0.84344  -0.11172
C          C       0.12585   0.33630   0.84578  -0.11303
C          C       0.12479   0.26152   0.84454   0.05208
C          C       0.22045   0.26254   0.84497   0.05044
C          C       0.24556   0.19965   0.84562  -0.11201
C          C       0.29320   0.33786   0.84562  -0.11554
C          C       0.34155   0.21362   0.84715  -0.06800
C          C       0.38895   0.35290   0.84734  -0.07910
C          C       0.41335   0.28931   0.84814  -0.03323
C          C       0.51540   0.30173   0.85026   0.64891
C          C       0.76518   0.55877   0.84223   0.55795
C          C       0.73822   0.62333   0.83440  -0.02511
C          C       0.72562   0.67033   0.87067  -0.08463
C          C       0.72313   0.63582   0.79096  -0.07535
C          C       0.69839   0.72869   0.86205  -0.11406
C          C       0.69518   0.69475   0.78303  -0.11806
C          C       0.68294   0.74240   0.81888   0.04857
C          C       0.65862   0.80964   0.81813   0.04739
C          C       0.65817   0.84690   0.86075  -0.11867
C          C       0.63889   0.84003   0.78149  -0.12179
C          C       0.64259   0.91398   0.86811  -0.07221
C          C       0.62119   0.90691   0.78814  -0.07396
C          C       0.62421   0.94435   0.83096  -0.03230
C          C       0.61065   0.01784   0.83747   0.55457
C          C       0.59479   0.26660   0.25991   0.63576
C          C       0.59941   0.27957   0.21272  -0.04576
C          C       0.60026   0.22074   0.18043  -0.08592
C          C       0.60407   0.35027   0.20048  -0.07297
C          C       0.60749   0.23567   0.13692  -0.11597
C          C       0.60933   0.36346   0.15633  -0.10711
C          C       0.61252   0.30610   0.12404   0.05831
C          C       0.62633   0.31079   0.07672   0.06843
C          C       0.63290   0.24434   0.05416  -0.10720
C          C       0.63656   0.37305   0.05350  -0.10131
C          C       0.64969   0.23798   0.00961  -0.08250
C          C       0.65584   0.36861   0.00894  -0.07093
C          C       0.66271   0.30198   0.98695  -0.04958
C          C       0.68461   0.29975   0.93958   0.64947
C          C       0.42730   0.29518   0.34765   0.64461
C          C       0.32609   0.28496   0.34646  -0.04208
C          C       0.25293   0.20958   0.34427  -0.07507
C          C       0.30378   0.34995   0.34761  -0.07960
C          C       0.15758   0.19753   0.34383  -0.11285
C          C       0.20856   0.33665   0.34621  -0.11421
C          C       0.13452   0.26175   0.34477   0.05330
C          C       0.03976   0.26236   0.34485   0.04973
C          C       0.95163   0.19914   0.34544  -0.10984
C          C       0.04242   0.33749   0.34523  -0.11418
C          C       0.86933   0.21250   0.34667  -0.06774
C          C       0.96142   0.35195   0.34642  -0.07887
C          C       0.87335   0.28798   0.34722  -0.03372
C          C       0.78364   0.29992   0.34906   0.65010
C          C       0.79358   0.55657   0.34211   0.55900
C          C       0.88462   0.62227   0.33459  -0.02840
C          C       0.94381   0.66984   0.37103  -0.08710
C          C       0.91223   0.63509   0.29121  -0.07468
C          C       0.02937   0.72901   0.36271  -0.11441
C          C      -0.00097   0.69479   0.28357  -0.11812
C          C       0.05878   0.74263   0.31958   0.04991
C          C       0.15099   0.80958   0.31892   0.04770
C          C       0.18943   0.84662   0.36156  -0.11955
C          C       0.20106   0.83971   0.28222  -0.11970
C          C       0.27289   0.91349   0.36884  -0.07348
C          C       0.28644   0.90624   0.28878  -0.07809
C          C       0.32141   0.94369   0.33158  -0.02885
C          C       0.40887   0.01727   0.33775   0.55313
S          S       0.37916   0.82591   0.90879   0.98067
S          S       0.83819   0.59141   0.65434   0.97488
S          S       0.88545   0.20173   0.59674   0.97958
S          S       0.44903   0.82580   0.40837   0.97842
S          S       0.75520   0.59145   0.15437   0.97508
S          S       0.31800   0.20256   0.09757   0.98169
S          S       0.55099   0.17422   0.59163   0.97792
S          S       0.24475   0.40857   0.84565   0.97504
S          S       0.68198   0.79750   0.90246   0.98092
S          S       0.62069   0.17425   0.09105   0.97997
S          S       0.16198   0.40859   0.34563   0.97457
S          S       0.11468   0.79845   0.40330   0.98053
O          O       0.42533   0.80166   0.73050  -0.62200
O          O       0.38982   0.67477   0.71059  -0.71279
O          O       0.46647   0.89617   0.91990  -0.49342
O          O       0.28957   0.83313   0.90244  -0.49517
O          O       0.32927   0.76800   0.08201  -0.66280
O          O       0.28592   0.63877   0.07781  -0.67994
O          O       0.55833   0.76636   0.66189  -0.68014
O          O       0.50728   0.63641   0.64245  -0.64544
O          O       0.81842   0.55728   0.69575  -0.48162
O          O       0.81386   0.53954   0.61275  -0.49652
O          O       0.29437   0.76139   0.64889  -0.69709
O          O       0.21246   0.63252   0.65124  -0.63030
O          O       0.22952   0.45761   0.61810  -0.62775
O          O       0.25923   0.48853   0.69116  -0.61193
O          O       0.92521   0.15131   0.57337  -0.48778
O          O       0.84008   0.23946   0.57143  -0.49575
O          O       0.57013   0.94200   0.62418  -0.60585
O          O       0.54158   0.95768   0.69550  -0.61490
O          O       0.37328   0.79962   0.22882  -0.62564
O          O       0.28610   0.67140   0.21023  -0.70615
O          O       0.43309   0.89622   0.41970  -0.49082
O          O       0.54580   0.83256   0.40230  -0.49491
O          O       0.43749   0.76811   0.58218  -0.66216
O          O       0.34660   0.63929   0.57806  -0.67935
O          O       0.21132   0.76687   0.16192  -0.67713
O          O       0.13007   0.63647   0.14452  -0.64589
O          O       0.74015   0.55731   0.19578  -0.48254
O          O       0.72779   0.53957   0.11276  -0.49670
O          O       0.46712   0.75862   0.14882  -0.70483
O          O       0.42078   0.62939   0.14888  -0.62954
O          O       0.22638   0.45560   0.11786  -0.63142
O          O       0.22574   0.48582   0.19082  -0.60876
O          O       0.22836   0.15338   0.07311  -0.48784
O          O       0.40310   0.24008   0.07343  -0.49808
O          O       0.37167   0.94255   0.12447  -0.60742
O          O       0.41233   0.95674   0.19609  -0.61053
O          O       0.62696   0.20020   0.77122  -0.62529
O          O       0.71373   0.32842   0.78998  -0.70735
O          O       0.56694   0.10380   0.58032  -0.49093
O          O       0.45420   0.16742   0.59769  -0.49479
O          O       0.56260   0.23204   0.41786  -0.66219
O          O       0.65319   0.36082   0.42193  -0.67956
O          O       0.78864   0.23300   0.83790  -0.67521
O          O       0.86988   0.36337   0.85561  -0.64733
O          O       0.25981   0.44272   0.80424  -0.48303
O          O       0.27217   0.46050   0.88723  -0.49655
O          O       0.53281   0.24142   0.85126  -0.70488
O          O       0.57936   0.37070   0.85110  -0.62807
O          O       0.77426   0.54528   0.88210  -0.62993
O          O       0.77440   0.51445   0.80913  -0.61024
O          O       0.77166   0.84654   0.92693  -0.48764
O          O       0.59696   0.75980   0.92663  -0.49805
O          O       0.62983   0.05863   0.87565  -0.60838
O          O       0.58384   0.04251   0.80453  -0.61014
O          O       0.57457   0.19817   0.26942  -0.62155
O          O       0.61039   0.32513   0.28938  -0.71346
O          O       0.53337   0.10397   0.08001  -0.49244
O          O       0.71033   0.16712   0.09748  -0.49517
O          O       0.67365   0.23483   0.91789  -0.66336
O          O       0.71372   0.36373   0.92245  -0.67827
O          O       0.44159   0.23335   0.33810  -0.67954
O          O       0.49266   0.36330   0.35756  -0.64563
O          O       0.18163   0.44273   0.30422  -0.48175
O          O       0.18636   0.46049   0.38720  -0.49574
O          O       0.70597   0.23970   0.35107  -0.69785
O          O       0.78859   0.36848   0.34877  -0.62883
O          O       0.77041   0.54262   0.38184  -0.62756
O          O       0.74079   0.51155   0.30881  -0.61206
O          O       0.07488   0.84887   0.42664  -0.48849
O          O       0.15989   0.76060   0.42860  -0.49550
O          O       0.43260   0.05775   0.37593  -0.60723
O          O       0.45851   0.04248   0.30434  -0.61508

