data_crystal

_audit_creation_method 'AiiDA-DDEC plugin'

_cell_length_a        10.41949
_cell_length_b        11.99193
_cell_length_c        32.13775

_cell_angle_alpha     89.96559
_cell_angle_beta     90.00951
_cell_angle_gamma     89.95085

_symmetry_space_group_name_Hall 'P 1'
_symmetry_space_group_name_H-M  'P 1'

loop_
_symmetry_equiv_pos_as_xyz
 'x,y,z'

loop_
_atom_site_label
_atom_site_type_symbol
_atom_site_fract_x
_atom_site_fract_y
_atom_site_fract_z
_atom_site_charge
Zn         Zn      0.61326   0.83075   0.04457   0.86421
Zn         Zn      0.87960   0.04674   0.64614   0.85347
Zn         Zn      0.88676   0.16937   0.54454   0.86518
Zn         Zn      0.62040   0.95326   0.14606   0.85377
Zn         Zn      0.38695   0.33117   0.45541   0.86463
Zn         Zn      0.12061   0.54699   0.85403   0.85452
Zn         Zn      0.11306   0.66884   0.95546   0.86435
Zn         Zn      0.37908   0.45299   0.35399   0.85426
H          H       0.24023   0.92445   0.03929   0.12119
H          H       0.00194   0.91603   0.03445   0.12509
H          H       0.86447   0.80026   0.17069   0.11013
H          H       0.97333   0.73550   0.23422   0.10025
H          H       0.21408   0.72202   0.23566   0.09588
H          H       0.33853   0.78174   0.17464   0.10904
H          H       0.52035   0.22252   0.06154   0.12534
H          H       0.49005   0.41203   0.03029   0.12145
H          H       0.66664   0.66592   0.13138   0.11854
H          H       0.74833   0.64560   0.20273   0.09816
H          H       0.76625   0.45674   0.23552   0.10578
H          H       0.69778   0.28995   0.19625   0.10573
H          H       0.53859   0.06764   0.78845   0.11754
H          H       0.44547   0.99418   0.85342   0.11836
H          H       0.82781   0.94774   0.90331   0.11881
H          H       0.91909   0.02195   0.83812   0.11664
H          H       0.70680   0.97480   0.72737   0.11614
H          H       0.99240   0.22074   0.71165   0.12802
H          H       0.91896   0.21900   0.79461   0.15065
H          H       0.75115   0.91002   0.95923   0.12938
H          H       0.36440   0.83625   0.98742   0.12991
H          H       0.37456   0.91086   0.90648   0.13219
H          H       0.25936   0.07529   0.53933   0.12134
H          H       0.49765   0.08387   0.53440   0.12458
H          H       0.63543   0.19979   0.67064   0.11067
H          H       0.52645   0.26433   0.73413   0.09993
H          H       0.28573   0.27786   0.73554   0.09654
H          H       0.16133   0.21823   0.67450   0.10936
H          H       0.97908   0.77740   0.56168   0.12577
H          H       0.00942   0.58773   0.53064   0.12076
H          H       0.83259   0.33430   0.63183   0.11766
H          H       0.75115   0.35474   0.70322   0.09775
H          H       0.73338   0.54369   0.73587   0.10597
H          H       0.80194   0.71040   0.69651   0.10597
H          H       0.96173   0.93223   0.28845   0.11725
H          H       0.05502   0.00565   0.35336   0.11754
H          H       0.67279   0.05228   0.40328   0.11918
H          H       0.58134   0.97798   0.33817   0.11685
H          H       0.79336   0.02524   0.22733   0.11649
H          H       0.50762   0.77941   0.21170   0.12728
H          H       0.58113   0.78100   0.29463   0.15049
H          H       0.74938   0.09015   0.45910   0.13059
H          H       0.13610   0.16384   0.48740   0.12979
H          H       0.12608   0.08906   0.40653   0.13203
H          H       0.75741   0.42429   0.46044   0.12160
H          H       0.99552   0.41612   0.46555   0.12480
H          H       0.13457   0.30057   0.32959   0.11126
H          H       0.02682   0.23600   0.26589   0.10027
H          H       0.78619   0.22218   0.26410   0.09605
H          H       0.66069   0.28124   0.32503   0.11016
H          H       0.47919   0.72257   0.43844   0.12565
H          H       0.50944   0.91221   0.46944   0.12072
H          H       0.33281   0.16577   0.36813   0.11780
H          H       0.25116   0.14528   0.29676   0.09801
H          H       0.23343   0.95629   0.26415   0.10604
H          H       0.30193   0.78955   0.30357   0.10584
H          H       0.46164   0.56790   0.71165   0.11698
H          H       0.55513   0.49449   0.64676   0.11726
H          H       0.17290   0.44779   0.59682   0.11909
H          H       0.08140   0.52216   0.66192   0.11713
H          H       0.29324   0.47470   0.77274   0.11614
H          H       0.00737   0.72079   0.78838   0.12891
H          H       0.08096   0.71931   0.70545   0.15033
H          H       0.24944   0.40960   0.54094   0.13082
H          H       0.63649   0.33620   0.51273   0.12897
H          H       0.62623   0.41108   0.59352   0.13181
H          H       0.74153   0.57575   0.96052   0.12173
H          H       0.50342   0.58425   0.96551   0.12498
H          H       0.36469   0.69966   0.82939   0.11061
H          H       0.47270   0.76432   0.76575   0.09990
H          H       0.71349   0.77805   0.76414   0.09539
H          H       0.83859   0.71865   0.82517   0.11002
H          H       0.02022   0.27743   0.93849   0.12600
H          H       0.99059   0.08793   0.96976   0.12101
H          H       0.16695   0.83393   0.86852   0.11834
H          H       0.24831   0.85437   0.79716   0.09794
H          H       0.26612   0.04327   0.76443   0.10630
H          H       0.19777   0.21006   0.80378   0.10616
H          H       0.03871   0.43227   0.21163   0.11696
H          H       0.94529   0.50575   0.14668   0.11799
H          H       0.32758   0.55224   0.09679   0.11882
H          H       0.41897   0.47795   0.16199   0.11693
H          H       0.20690   0.52530   0.27266   0.11633
H          H       0.49250   0.27905   0.28851   0.12853
H          H       0.41924   0.28072   0.20552   0.15015
H          H       0.25091   0.59017   0.04084   0.12979
H          H       0.86385   0.66383   0.01265   0.12958
H          H       0.87424   0.58911   0.09352   0.13184
C          C       0.24833   0.86700   0.10213  -0.07376
C          C       0.18433   0.89684   0.06589  -0.08866
C          C       0.05003   0.89473   0.06344  -0.08340
C          C       0.97538   0.86615   0.09759  -0.07835
C          C       0.03684   0.83199   0.13573   0.05614
C          C       0.96807   0.79758   0.17185  -0.15500
C          C       0.02974   0.76092   0.20731  -0.09669
C          C       0.16466   0.75386   0.20826  -0.09625
C          C       0.23498   0.78696   0.17410  -0.13467
C          C       0.17561   0.82952   0.13749   0.05561
C          C       0.39151   0.88108   0.10228   0.59827
C          C       0.83290   0.87108   0.09144   0.59584
C          C       0.59908   0.28501   0.11834  -0.05520
C          C       0.55009   0.29661   0.07850  -0.10286
C          C       0.53483   0.40301   0.06070  -0.10391
C          C       0.57530   0.49817   0.08133  -0.07813
C          C       0.63198   0.48928   0.12192   0.04682
C          C       0.67240   0.58368   0.14544  -0.14918
C          C       0.71946   0.57188   0.18539  -0.08934
C          C       0.72992   0.46530   0.20390  -0.09457
C          C       0.69205   0.37202   0.18201  -0.14338
C          C       0.64140   0.38071   0.14100   0.03640
C          C       0.59738   0.17145   0.13781   0.56702
C          C       0.55325   0.60839   0.06020   0.56191
C          C       0.73456   0.04925   0.80955   0.13841
C          C       0.60152   0.04100   0.81360  -0.15552
C          C       0.54916  -0.00036   0.85047  -0.14636
C          C       0.63035   0.96668   0.88294   0.16984
C          C       0.76385   0.97495   0.87857  -0.15161
C          C       0.81565   0.01662   0.84194  -0.13737
C          C       0.77355   0.04193   0.73342   0.08924
C          C       0.92210   0.16940   0.72729  -0.02694
C          C       0.88620   0.16937   0.76835  -0.09154
C          C       0.64769   0.90199   0.95615   0.10067
C          C       0.44544   0.86550   0.96953  -0.01431
C          C       0.44993   0.90212   0.92931  -0.10058
C          C       0.25150   0.13287   0.60211  -0.07543
C          C       0.31540   0.10298   0.56588  -0.08827
C          C       0.44968   0.10517   0.56339  -0.08357
C          C       0.52447   0.13378   0.59752  -0.07913
C          C       0.46305   0.16794   0.63565   0.05717
C          C       0.53182   0.20237   0.67177  -0.15585
C          C       0.47008   0.23896   0.70722  -0.09572
C          C       0.33516   0.24603   0.70816  -0.09802
C          C       0.26487   0.21295   0.67400  -0.13430
C          C       0.32428   0.17040   0.63743   0.05617
C          C       0.10835   0.11887   0.60226   0.59968
C          C       0.66698   0.12891   0.59138   0.59760
C          C       0.90035   0.71513   0.61854  -0.05678
C          C       0.94917   0.70339   0.57869  -0.10275
C          C       0.96429   0.59694   0.56099  -0.10339
C          C       0.92352   0.50198   0.58173  -0.07697
C          C       0.86704   0.51101   0.62229   0.04494
C          C       0.82678   0.41657   0.64585  -0.14799
C          C       0.77994   0.42842   0.68581  -0.08932
C          C       0.76962   0.53505   0.70425  -0.09464
C          C       0.80752   0.62831   0.68232  -0.14350
C          C       0.85792   0.61958   0.64129   0.03772
C          C       0.90243   0.82867   0.63794   0.56621
C          C       0.94635   0.39156   0.56097   0.56423
C          C       0.76577   0.95066   0.30955   0.13951
C          C       0.89884   0.95887   0.31360  -0.15624
C          C       0.95131   0.00021   0.35045  -0.14549
C          C       0.87022   0.03322   0.38291   0.16723
C          C       0.73671   0.02494   0.37856  -0.14965
C          C       0.68480   0.98328   0.34195  -0.13855
C          C       0.72656   0.95813   0.23340   0.08872
C          C       0.57796   0.83071   0.22732  -0.02692
C          C       0.61395   0.83067   0.26837  -0.09132
C          C       0.85284   0.09812   0.45608   0.09837
C          C       0.05505   0.13459   0.46952  -0.01509
C          C       0.05063   0.09785   0.42932  -0.10042
C          C       0.74966   0.36675   0.39769  -0.07536
C          C       0.81368   0.39669   0.43391  -0.08889
C          C       0.94801   0.39456   0.43652  -0.08400
C          C       0.02321   0.36596   0.40248  -0.07550
C          C       0.96174   0.33181   0.36433   0.05662
C          C       0.03099   0.29765   0.32829  -0.15740
C          C       0.96995   0.26113   0.29273  -0.09539
C          C       0.83509   0.25387   0.29161  -0.09623
C          C       0.76419   0.28672   0.32569  -0.13758
C          C       0.82286   0.32920   0.36241   0.05607
C          C       0.60633   0.38052   0.39773   0.59697
C          C       0.16604   0.37104   0.40864   0.59352
C          C       0.40029   0.78481   0.38157  -0.05580
C          C       0.44919   0.79659   0.42142  -0.10327
C          C       0.46428   0.90309   0.43909  -0.10262
C          C       0.42348  -0.00190   0.41835  -0.07910
C          C       0.36704   0.98903   0.37777   0.04584
C          C       0.32684   0.08346   0.35416  -0.14724
C          C       0.27998   0.07160   0.31420  -0.08870
C          C       0.26965   0.96494   0.29578  -0.09438
C          C       0.30751   0.87166   0.31775  -0.14438
C          C       0.35789   0.88040   0.35879   0.03757
C          C       0.40251   0.67124   0.36217   0.56781
C          C       0.44638   0.10863   0.43905   0.56449
C          C       0.26576   0.54946   0.69054   0.13741
C          C       0.39883   0.54123   0.68649  -0.15543
C          C       0.45138   0.49987   0.64964  -0.14474
C          C       0.37033   0.46681   0.61717   0.16701
C          C       0.23682   0.47511   0.62154  -0.15039
C          C       0.18485   0.51682   0.65814  -0.13797
C          C       0.22639   0.54186   0.76666   0.08762
C          C       0.07770   0.66943   0.77274  -0.02787
C          C       0.11379   0.66954   0.73170  -0.09081
C          C       0.35294   0.40176   0.54398   0.09873
C          C       0.55525   0.36541   0.53055  -0.01460
C          C       0.55075   0.40217   0.57074  -0.09990
C          C       0.74959   0.63355   0.89775  -0.07523
C          C       0.68549   0.60346   0.93395  -0.08917
C          C       0.55117   0.60546   0.93647  -0.08381
C          C       0.47613   0.63390   0.90238  -0.07681
C          C       0.53746   0.66813   0.86423   0.05625
C          C       0.46828   0.70243   0.82815  -0.15574
C          C       0.52948   0.73904   0.79261  -0.09640
C          C       0.66436   0.74621   0.79158  -0.09447
C          C       0.73508   0.71331   0.82571  -0.13721
C          C       0.67631   0.67087   0.86241   0.05561
C          C       0.89303   0.61983   0.89784   0.59664
C          C       0.33350   0.62890   0.90853   0.59507
C          C       0.09930   0.21499   0.88171  -0.05530
C          C       0.05030   0.20336   0.92155  -0.10332
C          C       0.03526   0.09694   0.93933  -0.10298
C          C       0.07570   0.00175   0.91868  -0.07777
C          C       0.13238   0.01064   0.87810   0.04506
C          C       0.17275   0.91624   0.85453  -0.14758
C          C       0.21962   0.92808   0.81456  -0.08844
C          C       0.22998   0.03469   0.79607  -0.09535
C          C       0.19221   0.12797   0.81801  -0.14380
C          C       0.14172   0.11926   0.85904   0.03683
C          C       0.09722   0.32860   0.86224   0.56781
C          C       0.05328   0.89148   0.93974   0.56105
C          C       0.23456   0.45064   0.19052   0.13828
C          C       0.10151   0.45892   0.18647  -0.15497
C          C       0.04901   0.50032   0.14960  -0.14559
C          C       0.13012   0.53331   0.11713   0.16708
C          C       0.26364   0.52503   0.12152  -0.14997
C          C       0.31554   0.48331   0.15815  -0.13844
C          C       0.27363   0.45805   0.26663   0.08847
C          C       0.42224   0.33043   0.27282  -0.02802
C          C       0.38638   0.33043   0.23176  -0.09050
C          C       0.14740   0.59810   0.04392   0.09906
C          C       0.94505   0.63456   0.03050  -0.01419
C          C       0.94963   0.59790   0.07071  -0.10027
N          N       0.79134   0.08824   0.77175   0.02301
N          N       0.85189   0.08968   0.70596  -0.27323
N          N       0.57860   0.92517   0.92088   0.02650
N          N       0.56873   0.86631   0.98582  -0.27979
N          N       0.70885   0.91177   0.27175   0.02302
N          N       0.64815   0.91045   0.20596  -0.27320
N          N       0.92198   0.07478   0.42085   0.02814
N          N       0.93171   0.13389   0.48577  -0.27914
N          N       0.20877   0.58837   0.72832   0.02465
N          N       0.14788   0.58953   0.79409  -0.27360
N          N       0.42206   0.42518   0.57921   0.02795
N          N       0.43190   0.36602   0.51429  -0.27879
N          N       0.29145   0.41164   0.22832   0.02371
N          N       0.35196   0.41029   0.29411  -0.27357
N          N       0.07833   0.57486   0.07917   0.02869
N          N       0.06836   0.63378   0.01424  -0.27882
O          O       0.44838   0.88836   0.13750  -0.53433
O          O       0.44748   0.88946   0.06716  -0.55664
O          O       0.75885   0.85517   0.12265  -0.56576
O          O       0.79112   0.88890   0.05460  -0.51694
O          O       0.65510   0.09344   0.11682  -0.55280
O          O       0.53991   0.15543   0.17155  -0.55448
O          O       0.44936   0.62738   0.04195  -0.54042
O          O       0.64890   0.67791   0.06246  -0.55550
O          O       0.05152   0.11161   0.63749  -0.53462
O          O       0.05243   0.11053   0.56714  -0.55661
O          O       0.74101   0.14477   0.62260  -0.56669
O          O       0.70880   0.11115   0.55454  -0.51864
O          O       0.84489   0.90673   0.61688  -0.55202
O          O       0.95993   0.84463   0.67169  -0.55432
O          O       0.05167   0.37237   0.54368  -0.54080
O          O       0.85060   0.32213   0.56248  -0.55653
O          O       0.54724   0.38150   0.36273  -0.53528
O          O       0.55151   0.39465   0.43281  -0.55585
O          O       0.24014   0.35543   0.37741  -0.56484
O          O       0.20810   0.38873   0.44546  -0.51666
O          O       0.34493   0.59315   0.38315  -0.55249
O          O       0.46028   0.65532   0.32847  -0.55528
O          O       0.55171   0.12776   0.45633  -0.54107
O          O       0.35074   0.17829   0.43748  -0.55534
O          O       0.95196   0.61828   0.86281  -0.53618
O          O       0.94800   0.60590   0.93292  -0.55576
O          O       0.25951   0.64467   0.87728  -0.56490
O          O       0.29152   0.61116   0.94535  -0.51688
O          O       0.15476   0.40669   0.88321  -0.55207
O          O       0.03959   0.34459   0.82852  -0.55519
O          O       0.94920   0.87264   0.95788  -0.54037
O          O       0.14877   0.82170   0.93754  -0.55438

