data_crystal

_audit_creation_method 'AiiDA-DDEC plugin'

_cell_length_a        15.24483
_cell_length_b        24.26635
_cell_length_c        24.28449

_cell_angle_alpha     115.73519
_cell_angle_beta     102.01261
_cell_angle_gamma     102.11050

_symmetry_space_group_name_Hall 'P 1'
_symmetry_space_group_name_H-M  'P 1'

loop_
_symmetry_equiv_pos_as_xyz
 'x,y,z'

loop_
_atom_site_label
_atom_site_type_symbol
_atom_site_fract_x
_atom_site_fract_y
_atom_site_fract_z
_atom_site_charge
Cu         Cu      0.93512   0.52251   0.01725   0.86223
Cu         Cu      0.54713   0.00491   0.55216   0.18748
Cu         Cu      0.91779   0.98273   0.50500   0.86145
Cu         Cu      0.99521   0.44780   0.45276   0.18862
Cu         Cu      0.41275   0.49464   0.47733   0.86274
Cu         Cu      0.54285   0.54699   0.99495   0.18757
Cu         Cu      0.06488   0.47749   0.98275   0.86225
Cu         Cu      0.45287   0.99509   0.44784   0.18743
Cu         Cu      0.08222   0.01726   0.49500   0.86169
Cu         Cu      0.00480   0.55220   0.54724   0.18863
Cu         Cu      0.58726   0.50536   0.52267   0.86234
Cu         Cu      0.45716   0.45301   0.00505   0.18766
H          H       0.81834   0.55438   0.86165   0.12348
H          H       0.77276   0.56357   0.76162   0.10771
H          H       0.97162   0.47070   0.69515   0.11084
H          H       0.01811   0.46437   0.79650   0.12764
H          H       0.69119   0.50074   0.64148   0.10889
H          H       0.79077   0.53275   0.50754   0.08760
H          H       0.99066   0.54792   0.66307   0.09573
H          H       0.68501   0.34180   0.92435   0.11587
H          H       0.56410   0.23178   0.84443   0.11213
H          H       0.78199   0.16865   0.77371   0.11257
H          H       0.90258   0.27827   0.85582   0.10822
H          H       0.52201   0.10677   0.81123   0.10157
H          H       0.41400   0.96683   0.61503   0.07048
H          H       0.64201   0.13046   0.67308   0.09412
H          H       0.95622   0.13890   0.69273   0.12420
H          H       0.01114   0.23892   0.80215   0.10749
H          H       0.27624   0.30519   0.77561   0.11242
H          H       0.22125   0.20378   0.66772   0.12617
H          H       0.04958   0.35881   0.85922   0.10925
H          H       0.28213   0.49266   0.02541   0.08825
H          H       0.32734   0.33702   0.88529   0.09633
H          H       0.76015   0.07593   0.41772   0.11443
H          H       0.71951   0.15559   0.38710   0.11292
H          H       0.00867   0.22605   0.39514   0.11411
H          H       0.04635   0.14398   0.42307   0.11160
H          H       0.71078   0.18880   0.29578   0.10023
H          H       0.79861   0.38510   0.35174   0.07151
H          H       0.96799   0.32738   0.45772   0.09483
H          H       0.26308   0.30659   0.44529   0.12757
H          H       0.20896   0.19736   0.43658   0.10749
H          H       0.50070   0.22464   0.52947   0.11129
H          H       0.55302   0.33229   0.53536   0.12724
H          H       0.19004   0.14033   0.49926   0.11043
H          H       0.25708   0.97417   0.46705   0.08776
H          H       0.44290   0.11498   0.45255   0.09508
H          H       0.34326   0.58229   0.65840   0.11481
H          H       0.33228   0.61213   0.76840   0.11178
H          H       0.61320   0.60454   0.83108   0.11136
H          H       0.62428   0.57748   0.72162   0.11129
H          H       0.41450   0.70375   0.89299   0.10087
H          H       0.44773   0.64779   0.03325   0.07002
H          H       0.51123   0.54210   0.86937   0.09584
H          H       0.18167   0.44562   0.13835   0.12358
H          H       0.22724   0.43643   0.23839   0.10798
H          H       0.02839   0.52930   0.30485   0.11087
H          H       0.98190   0.53562   0.20350   0.12740
H          H       0.30881   0.49926   0.35852   0.10897
H          H       0.20924   0.46725   0.49246   0.08780
H          H       0.00935   0.45208   0.33693   0.09554
H          H       0.31498   0.65820   0.07565   0.11605
H          H       0.43590   0.76822   0.15557   0.11228
H          H       0.21801   0.83135   0.22630   0.11250
H          H       0.09742   0.72173   0.14419   0.10829
H          H       0.47799   0.89322   0.18878   0.10143
H          H       0.58600   0.03317   0.38497   0.07052
H          H       0.35800   0.86953   0.32693   0.09416
H          H       0.04378   0.86109   0.30727   0.12427
H          H       0.98887   0.76108   0.19785   0.10745
H          H       0.72377   0.69481   0.22439   0.11240
H          H       0.77875   0.79622   0.33228   0.12614
H          H       0.95042   0.64119   0.14078   0.10939
H          H       0.71788   0.50734   0.97459   0.08818
H          H       0.67267   0.66298   0.11471   0.09617
H          H       0.23985   0.92407   0.58228   0.11446
H          H       0.28050   0.84441   0.61290   0.11324
H          H       0.99134   0.77395   0.60486   0.11419
H          H       0.95365   0.85602   0.57693   0.11144
H          H       0.28923   0.81120   0.70422   0.10025
H          H       0.20139   0.61490   0.64827   0.07179
H          H       0.03202   0.67261   0.54229   0.09456
H          H       0.73693   0.69341   0.55472   0.12784
H          H       0.79105   0.80264   0.56342   0.10754
H          H       0.49930   0.77536   0.47053   0.11104
H          H       0.44698   0.66771   0.46464   0.12707
H          H       0.80997   0.85967   0.50075   0.11057
H          H       0.74293   0.02583   0.53295   0.08755
H          H       0.55711   0.88501   0.54745   0.09507
H          H       0.65674   0.41771   0.34161   0.11501
H          H       0.66772   0.38787   0.23160   0.11189
H          H       0.38680   0.39546   0.16893   0.11122
H          H       0.37572   0.42252   0.27838   0.11114
H          H       0.58551   0.29625   0.10701   0.10125
H          H       0.55227   0.35221   0.96676   0.06981
H          H       0.48878   0.45790   0.13063   0.09570
C          C       0.94920   0.50560   0.89567   0.57963
C          C       0.92060   0.50900   0.83478  -0.02446
C          C       0.85064   0.53623   0.82449  -0.08390
C          C       0.82505   0.54062   0.76843  -0.14379
C          C       0.86904   0.51762   0.72160   0.06704
C          C       0.93863   0.48974   0.73186  -0.13583
C          C       0.96426   0.48561   0.78802  -0.08325
C          C       0.84503   0.52309   0.66265  -0.01383
C          C       0.75233   0.51288   0.62712   0.08657
C          C       0.80624   0.53092   0.55247   0.22977
C          C       0.91636   0.53855   0.63841   0.07318
C          C       0.87317   0.38429   0.93763   0.58301
C          C       0.80089   0.31709   0.89403  -0.02489
C          C       0.70564   0.30333   0.89167  -0.07986
C          C       0.63827   0.24176   0.84691  -0.13574
C          C       0.66461   0.19326   0.80270   0.06651
C          C       0.76074   0.20667   0.80652  -0.14575
C          C       0.82806   0.26759   0.85215  -0.08843
C          C       0.59351   0.12966   0.75126  -0.01445
C          C       0.52442   0.09120   0.76228   0.06504
C          C       0.46540   0.01326   0.65500   0.21133
C          C       0.59288   0.10383   0.68716   0.06405
C          C       0.05388   0.10494   0.60960   0.57946
C          C       0.08565   0.16560   0.67410  -0.02499
C          C       0.02583   0.17585   0.71165  -0.08512
C          C       0.05648   0.23186   0.77224  -0.14279
C          C       0.14736   0.27860   0.79615   0.06754
C          C       0.20665   0.26842   0.75796  -0.13901
C          C       0.17603   0.21234   0.69757  -0.08035
C          C       0.18225   0.33751   0.86062  -0.01135
C          C       0.12491   0.37304   0.88582   0.08509
C          C       0.25305   0.44769   0.97866   0.22742
C          C       0.27762   0.36175   0.90043   0.07133
C          C       0.93396   0.06181   0.44636   0.58122
C          C       0.90615   0.10580   0.42307  -0.02227
C          C       0.81343   0.10836   0.41167  -0.07755
C          C       0.79121   0.15315   0.39476  -0.13995
C          C       0.86194   0.19731   0.39050   0.06877
C          C       0.95423   0.19339   0.40029  -0.14816
C          C       0.97553   0.14769   0.41568  -0.09196
C          C       0.84224   0.24881   0.37838  -0.01397
C          C       0.76212   0.23777   0.32904   0.06592
C          C       0.81002   0.34515   0.35831   0.21045
C          C       0.90514   0.31307   0.41679   0.06288
C          C       0.44303   0.39011   0.49445   0.57974
C          C       0.41088   0.32561   0.49077  -0.02506
C          C       0.31376   0.28782   0.46353  -0.08876
C          C       0.28410   0.22736   0.45934  -0.14242
C          C       0.35123   0.20373   0.48247   0.06560
C          C       0.44857   0.24209   0.51025  -0.13597
C          C       0.47804   0.30239   0.51420  -0.08121
C          C       0.32180   0.13929   0.47709  -0.01089
C          C       0.23904   0.11383   0.48707   0.08326
C          C       0.27473   0.02102   0.46896   0.22896
C          C       0.37775   0.09964   0.46177   0.07203
C          C       0.48911   0.55381   0.61595   0.57984
C          C       0.48403   0.57721   0.68311  -0.02576
C          C       0.40243   0.58834   0.69688  -0.07654
C          C       0.39663   0.60498   0.75842  -0.13896
C          C       0.47143   0.60929   0.80682   0.07016
C          C       0.55412   0.59973   0.79331  -0.14675
C          C       0.56057   0.58465   0.73244  -0.09037
C          C       0.46376   0.62120   0.87032  -0.01512
C          C       0.43285   0.67052   0.90868   0.06709
C          C       0.45230   0.64128   0.98672   0.21189
C          C       0.48891   0.58287   0.89609   0.06230
C          C       0.05081   0.49439   0.10433   0.57991
C          C       0.07941   0.49100   0.16522  -0.02454
C          C       0.14937   0.46376   0.17551  -0.08414
C          C       0.17496   0.45938   0.23157  -0.14360
C          C       0.13096   0.48237   0.27840   0.06688
C          C       0.06138   0.51026   0.26815  -0.13583
C          C       0.03574   0.51439   0.21198  -0.08329
C          C       0.15497   0.47690   0.33735  -0.01358
C          C       0.24767   0.48712   0.37288   0.08625
C          C       0.19376   0.46908   0.44753   0.22991
C          C       0.08365   0.46145   0.36160   0.07295
C          C       0.12683   0.61571   0.06238   0.58290
C          C       0.19910   0.68291   0.10597  -0.02501
C          C       0.29436   0.69667   0.10833  -0.07978
C          C       0.36172   0.75823   0.15310  -0.13579
C          C       0.33540   0.80674   0.19731   0.06675
C          C       0.23926   0.79333   0.19348  -0.14597
C          C       0.17194   0.73241   0.14786  -0.08879
C          C       0.40649   0.87034   0.24874  -0.01463
C          C       0.47559   0.90879   0.23773   0.06510
C          C       0.53460   0.98673   0.34501   0.21143
C          C       0.40713   0.89617   0.31284   0.06416
C          C       0.94613   0.89506   0.39041   0.57950
C          C       0.91435   0.83440   0.32590  -0.02502
C          C       0.97417   0.82414   0.28835  -0.08513
C          C       0.94352   0.76814   0.22777  -0.14271
C          C       0.85265   0.72139   0.20385   0.06763
C          C       0.79335   0.73157   0.24204  -0.13910
C          C       0.82397   0.78766   0.30243  -0.08030
C          C       0.81776   0.66248   0.13938  -0.01151
C          C       0.87509   0.62696   0.11418   0.08533
C          C       0.74695   0.55230   0.02135   0.22752
C          C       0.72238   0.63825   0.09957   0.07135
C          C       0.06605   0.93819   0.55364   0.58184
C          C       0.09386   0.89419   0.57693  -0.02225
C          C       0.18657   0.89164   0.58834  -0.07786
C          C       0.20880   0.84685   0.60524  -0.13988
C          C       0.13806   0.80269   0.60950   0.06889
C          C       0.04577   0.80661   0.59972  -0.14821
C          C       0.02448   0.85231   0.58432  -0.09209
C          C       0.15776   0.75119   0.62162  -0.01403
C          C       0.23789   0.76223   0.67096   0.06577
C          C       0.18998   0.65485   0.64170   0.21038
C          C       0.09487   0.68692   0.58321   0.06269
C          C       0.55697   0.60988   0.50555   0.57975
C          C       0.58912   0.67439   0.50923  -0.02520
C          C       0.68624   0.71218   0.53647  -0.08854
C          C       0.71590   0.77264   0.54066  -0.14224
C          C       0.64878   0.79626   0.51754   0.06557
C          C       0.55144   0.75791   0.48975  -0.13624
C          C       0.52196   0.69761   0.48580  -0.08111
C          C       0.67821   0.86071   0.52291  -0.01074
C          C       0.76097   0.88617   0.51293   0.08338
C          C       0.72527   0.97898   0.53104   0.22876
C          C       0.62226   0.90036   0.53824   0.07192
C          C       0.51089   0.44619   0.38406   0.57981
C          C       0.51598   0.42279   0.31689  -0.02575
C          C       0.59758   0.41166   0.30312  -0.07627
C          C       0.60338   0.39502   0.24159  -0.13883
C          C       0.52858   0.39071   0.19318   0.07003
C          C       0.44588   0.40027   0.20669  -0.14707
C          C       0.43943   0.41535   0.26757  -0.09038
C          C       0.53624   0.37880   0.12969  -0.01492
C          C       0.56716   0.32948   0.09132   0.06699
C          C       0.54771   0.35872   0.01328   0.21193
C          C       0.51109   0.41713   0.10392   0.06230
I          I       0.61315   0.10259   0.53040  -0.43842
I          I       0.08196   0.46935   0.57185  -0.43871
I          I       0.51138   0.42763   0.89803  -0.43821
I          I       0.38685   0.89741   0.46960  -0.43839
I          I       0.91804   0.53064   0.42815  -0.43903
I          I       0.48863   0.57237   0.10197  -0.43816
N          N       0.73370   0.51711   0.57268  -0.25898
N          N       0.89780   0.54192   0.58342  -0.20664
N          N       0.45985   0.03362   0.71440  -0.28260
N          N       0.53029   0.04529   0.63896  -0.20727
N          N       0.16047   0.42739   0.94456  -0.25754
N          N       0.31385   0.41683   0.95875  -0.20418
N          N       0.74526   0.28565   0.31935  -0.28311
N          N       0.89067   0.36129   0.40646  -0.20761
N          N       0.21591   0.05499   0.48256  -0.25689
N          N       0.35565   0.04119   0.45832  -0.20463
N          N       0.42605   0.68022   0.96631  -0.28450
N          N       0.48500   0.59317   0.95463  -0.20736
N          N       0.26631   0.48289   0.42733  -0.25871
N          N       0.10221   0.45808   0.41659  -0.20652
N          N       0.54016   0.96637   0.28560  -0.28281
N          N       0.46971   0.95471   0.36104  -0.20714
N          N       0.83954   0.57261   0.05544  -0.25733
N          N       0.68615   0.58317   0.04125  -0.20451
N          N       0.25475   0.71435   0.68065  -0.28250
N          N       0.10934   0.63871   0.59354  -0.20748
N          N       0.78410   0.94501   0.51745  -0.25678
N          N       0.64436   0.95881   0.54168  -0.20455
N          N       0.57396   0.31978   0.03369  -0.28432
N          N       0.51501   0.40682   0.04538  -0.20757
O          O       0.90282   0.52436   0.93444  -0.54177
O          O       0.01780   0.48424   0.90373  -0.54620
O          O       0.84405   0.43003   0.96936  -0.53498
O          O       0.95877   0.39063   0.93816  -0.56288
O          O       0.96854   0.06631   0.58900  -0.54269
O          O       0.11501   0.09685   0.58060  -0.54444
O          O       0.87233   0.02958   0.45948  -0.53191
O          O       0.01916   0.06140   0.45271  -0.56669
O          O       0.37808   0.40991   0.47514  -0.54097
O          O       0.53301   0.41993   0.51661  -0.54670
O          O       0.41414   0.53940   0.57018  -0.53456
O          O       0.56870   0.54854   0.60981  -0.56080
O          O       0.09719   0.47563   0.06556  -0.54163
O          O       0.98221   0.51575   0.09627  -0.54653
O          O       0.15594   0.56997   0.03064  -0.53471
O          O       0.04122   0.60937   0.06184  -0.56314
O          O       0.03147   0.93369   0.41101  -0.54270
O          O       0.88499   0.90314   0.41940  -0.54449
O          O       0.12767   0.97042   0.54052  -0.53203
O          O       0.98085   0.93859   0.54730  -0.56714
O          O       0.62192   0.59009   0.52486  -0.54063
O          O       0.46700   0.58007   0.48340  -0.54705
O          O       0.58587   0.46060   0.42982  -0.53420
O          O       0.43130   0.45146   0.39019  -0.56108

