data_crystal

_audit_creation_method 'AiiDA-DDEC plugin'

_cell_length_a        15.49257
_cell_length_b        16.63388
_cell_length_c        17.77293

_cell_angle_alpha     117.96379
_cell_angle_beta     115.79203
_cell_angle_gamma     89.98760

_symmetry_space_group_name_Hall 'P 1'
_symmetry_space_group_name_H-M  'P 1'

loop_
_symmetry_equiv_pos_as_xyz
 'x,y,z'

loop_
_atom_site_label
_atom_site_type_symbol
_atom_site_fract_x
_atom_site_fract_y
_atom_site_fract_z
_atom_site_charge
Cu         Cu     -0.00000   0.00000   0.50001   0.84509
Cu         Cu      0.50000   0.00000   0.50000   0.84361
Cu         Cu      0.50000   0.50000   0.50000   0.84478
Cu         Cu      0.00001   0.50000   0.50000   0.84421
H          H       0.88707   0.80649   0.41841   0.09967
H          H       0.90938   0.64441   0.35264   0.14251
H          H       0.19087   0.75738   0.39871   0.13655
H          H       0.15901   0.91590   0.46520   0.09401
H          H       0.01661   0.54030   0.32152   0.12627
H          H       0.14325   0.58897   0.36689   0.11444
H          H       0.81568   0.44129   0.93396   0.14521
H          H       0.24483   0.18825   0.79980   0.11906
H          H       0.40076   0.24841   0.95848   0.10964
H          H       0.06151   0.06490   0.74182   0.10752
H          H       0.94374   0.09001   0.69745   0.07178
H          H       0.95943   0.00293   0.73186   0.07924
H          H       0.88811   0.94281   0.55356   0.31784
H          H       0.53096   0.11165   0.41792   0.10032
H          H       0.44260   0.20768   0.35217   0.14280
H          H       0.20743   0.14015   0.39830   0.13604
H          H       0.30617   0.04848   0.46484   0.09368
H          H       0.30442   0.28071   0.32158   0.12687
H          H       0.22347   0.27774   0.36741   0.11431
H          H       0.11876   0.99276   0.93436   0.14515
H          H       0.55464   0.11173   0.80027   0.11917
H          H       0.55664   0.21055   0.95879   0.10941
H          H       0.67941   0.17722   0.74143   0.10862
H          H       0.75285   0.10773   0.69687   0.07188
H          H       0.77139   0.22921   0.73128   0.07977
H          H       0.66427   0.11103   0.55289   0.31695
H          H       0.11293   0.19351   0.58159   0.09963
H          H       0.09061   0.35559   0.64735   0.14255
H          H       0.80913   0.24263   0.60129   0.13664
H          H       0.84099   0.08410   0.53480   0.09394
H          H       0.98339   0.45970   0.67848   0.12633
H          H       0.85675   0.41104   0.63311   0.11447
H          H       0.18432   0.55871   0.06604   0.14510
H          H       0.75517   0.81176   0.20020   0.11900
H          H       0.59924   0.75160   0.04152   0.10962
H          H       0.93848   0.93510   0.25818   0.10763
H          H       0.05626   0.91000   0.30255   0.07158
H          H       0.04057   0.99707   0.26814   0.07935
H          H       0.11188   0.05718   0.44644   0.31784
H          H       0.46904   0.88835   0.58208   0.10046
H          H       0.55740   0.79232   0.64783   0.14270
H          H       0.79256   0.85986   0.60169   0.13599
H          H       0.69382   0.95152   0.53515   0.09378
H          H       0.69558   0.71929   0.67842   0.12682
H          H       0.77653   0.72226   0.63259   0.11432
H          H       0.88124   0.00724   0.06564   0.14516
H          H       0.44535   0.88827   0.19973   0.11926
H          H       0.44336   0.78945   0.04121   0.10944
H          H       0.32059   0.82279   0.25857   0.10856
H          H       0.24715   0.89228   0.30313   0.07199
H          H       0.22860   0.77079   0.26872   0.07973
H          H       0.33572   0.88897   0.44711   0.31694
H          H       0.61306   0.38824   0.58183   0.09946
H          H       0.59047   0.29192   0.64739   0.14256
H          H       0.30912   0.35907   0.60128   0.13620
H          H       0.34133   0.45114   0.53502   0.09425
H          H       0.48304   0.21882   0.67807   0.12695
H          H       0.35642   0.22198   0.63265   0.11453
H          H       0.68428   0.50723   0.06604   0.14491
H          H       0.25560   0.38861   0.20052   0.11941
H          H       0.09957   0.28966   0.04174   0.10943
H          H       0.43851   0.32275   0.25807   0.10801
H          H       0.55630   0.39238   0.30257   0.07217
H          H       0.54061   0.27081   0.26774   0.07957
H          H       0.61176   0.38906   0.44645   0.31773
H          H       0.96857   0.69335   0.58158   0.09904
H          H       0.05664   0.85539   0.64751   0.14265
H          H       0.29215   0.74227   0.60149   0.13708
H          H       0.19382   0.58381   0.53495   0.09366
H          H       0.19483   0.95949   0.67866   0.12683
H          H       0.27614   0.91082   0.63320   0.11495
H          H       0.38189   0.05894   0.06640   0.14516
H          H       0.94593   0.31130   0.20032   0.11964
H          H       0.94360   0.25183   0.04166   0.10941
H          H       0.81996   0.43539   0.25811   0.10808
H          H       0.74650   0.41009   0.30237   0.07216
H          H       0.72716   0.49664   0.26728   0.07974
H          H       0.83396   0.55779   0.44613   0.31833
H          H       0.38694   0.61177   0.41817   0.09948
H          H       0.40953   0.70809   0.35261   0.14270
H          H       0.69088   0.64093   0.39872   0.13622
H          H       0.65867   0.54887   0.46497   0.09410
H          H       0.51696   0.78118   0.32193   0.12704
H          H       0.64358   0.77802   0.36735   0.11452
H          H       0.31572   0.49278   0.93396   0.14499
H          H       0.74440   0.61140   0.79948   0.11946
H          H       0.90043   0.71035   0.95826   0.10938
H          H       0.56149   0.67725   0.74193   0.10792
H          H       0.44370   0.60762   0.69743   0.07208
H          H       0.45938   0.72919   0.73226   0.07972
H          H       0.38824   0.61094   0.55355   0.31779
H          H       0.03144   0.30665   0.41843   0.09901
H          H       0.94336   0.14461   0.35249   0.14255
H          H       0.70785   0.25773   0.39851   0.13703
H          H       0.80618   0.41619   0.46506   0.09381
H          H       0.80516   0.04051   0.32134   0.12667
H          H       0.72386   0.08919   0.36680   0.11493
H          H       0.61811   0.94106   0.93360   0.14513
H          H       0.05407   0.68871   0.79968   0.11967
H          H       0.05639   0.74817   0.95834   0.10940
H          H       0.18004   0.56461   0.74189   0.10817
H          H       0.25350   0.58992   0.69763   0.07232
H          H       0.27284   0.50336   0.73271   0.07957
H          H       0.16604   0.44221   0.55386   0.31833
C          C       0.95299   0.79311   0.41224   0.10527
C          C       0.96566   0.70222   0.37485  -0.16920
C          C       0.05146   0.68735   0.36831   0.13726
C          C       0.12205   0.76537   0.40081  -0.18640
C          C       0.10440   0.85404   0.43751   0.08684
C          C       0.06662   0.58965   0.32462  -0.11487
C          C       0.95163   0.51688   0.14307   0.42777
C          C       0.12062   0.57008   0.20317   0.42283
C          C       0.96557   0.50262   0.06001  -0.05267
C          C       0.89457   0.46668   0.96231  -0.07627
C          C       0.93269   0.46538   0.90373  -0.05330
C          C       0.21752   0.08575   0.61751   0.57212
C          C       0.31195   0.11696   0.71170  -0.04624
C          C       0.31318   0.17183   0.80099  -0.10211
C          C       0.40068   0.20550   0.88971  -0.10221
C          C       0.98110   0.03383   0.69782  -0.11992
C          C       0.45895   0.11882   0.41193   0.10361
C          C       0.40874   0.17219   0.37460  -0.16908
C          C       0.31648   0.18043   0.36828   0.13759
C          C       0.27846   0.13463   0.40058  -0.18699
C          C       0.33297   0.08281   0.43723   0.08648
C          C       0.25765   0.23457   0.32492  -0.11571
C          C       0.19121   0.12604   0.14347   0.42720
C          C       0.08196   0.13308   0.20332   0.42383
C          C       0.09443   0.05717   0.06026  -0.05331
C          C       0.06800   0.99564   0.96251  -0.07484
C          C       0.97126   0.93854   0.90364  -0.05456
C          C       0.40034   0.03136   0.61801   0.57073
C          C       0.39954   0.09446   0.71195  -0.04485
C          C       0.48731   0.12900   0.80132  -0.10305
C          C       0.48810   0.18414   0.88990  -0.10126
C          C       0.71578   0.16424   0.69733  -0.12319
C          C       0.04701   0.20689   0.58777   0.10529
C          C       0.03434   0.29778   0.62515  -0.16911
C          C       0.94853   0.31265   0.63169   0.13715
C          C       0.87794   0.23463   0.59919  -0.18641
C          C       0.89559   0.14597   0.56250   0.08669
C          C       0.93337   0.41036   0.67538  -0.11478
C          C       0.04837   0.48312   0.85693   0.42774
C          C       0.87938   0.42993   0.79683   0.42281
C          C       0.03443   0.49738   0.93999  -0.05279
C          C       0.10543   0.53333   0.03768  -0.07611
C          C       0.06730   0.53462   0.09626  -0.05332
C          C       0.78248   0.91425   0.38249   0.57224
C          C       0.68805   0.88304   0.28830  -0.04613
C          C       0.68682   0.82817   0.19902  -0.10224
C          C       0.59932   0.79451   0.11029  -0.10217
C          C       0.01890   0.96618   0.30218  -0.11999
C          C       0.54105   0.88119   0.58807   0.10348
C          C       0.59126   0.82781   0.62539  -0.16915
C          C       0.68352   0.81957   0.63172   0.13756
C          C       0.72154   0.86537   0.59942  -0.18688
C          C       0.66703   0.91719   0.56277   0.08640
C          C       0.74235   0.76543   0.67508  -0.11580
C          C       0.80878   0.87396   0.85653   0.42698
C          C       0.91804   0.86693   0.79668   0.42372
C          C       0.90557   0.94283   0.93973  -0.05328
C          C       0.93200   0.00436   0.03748  -0.07480
C          C       0.02874   0.06146   0.09636  -0.05463
C          C       0.59965   0.96864   0.38199   0.57078
C          C       0.60045   0.90555   0.28805  -0.04486
C          C       0.51269   0.87101   0.19868  -0.10309
C          C       0.51190   0.81587   0.11010  -0.10110
C          C       0.28422   0.83577   0.30267  -0.12295
C          C       0.54706   0.38098   0.58785   0.10537
C          C       0.53424   0.32751   0.62513  -0.17010
C          C       0.44834   0.31917   0.63151   0.13766
C          C       0.37792   0.36485   0.59915  -0.18674
C          C       0.39574   0.41680   0.56258   0.08554
C          C       0.43300   0.26507   0.67498  -0.11485
C          C       0.54789   0.37344   0.85656   0.42773
C          C       0.37899   0.36690   0.79676   0.42304
C          C       0.53431   0.44258   0.93980  -0.05358
C          C       0.60538   0.50420   0.03756  -0.07414
C          C       0.56736   0.56149   0.09630  -0.05534
C          C       0.28273   0.46846   0.38237   0.57222
C          C       0.18826   0.40558   0.28838  -0.04670
C          C       0.18707   0.37114   0.19915  -0.10241
C          C       0.09950   0.31606   0.11049  -0.10132
C          C       0.51893   0.33573   0.30205  -0.12234
C          C       0.04067   0.70671   0.58780   0.10550
C          C       0.09072   0.79756   0.62524  -0.16946
C          C       0.18308   0.81241   0.63187   0.13800
C          C       0.22122   0.73434   0.59935  -0.18683
C          C       0.16690   0.64571   0.56263   0.08673
C          C       0.24179   0.91014   0.67554  -0.11641
C          C       0.30857   0.98311   0.85730   0.42711
C          C       0.41719   0.92981   0.79666   0.42252
C          C       0.40564   0.99741   0.94017  -0.05343
C          C       0.43241   0.03347   0.03795  -0.07581
C          C       0.52906   0.03473   0.09639  -0.05325
C          C       0.10048   0.41354   0.38247   0.57254
C          C       0.10083   0.38297   0.28841  -0.04573
C          C       0.01299   0.32812   0.19911  -0.10284
C          C       0.01213   0.29467   0.11049  -0.10160
C          C       0.78316   0.46630   0.30184  -0.12213
C          C       0.45294   0.61902   0.41215   0.10545
C          C       0.46576   0.67249   0.37486  -0.16999
C          C       0.55166   0.68083   0.36849   0.13767
C          C       0.62208   0.63515   0.40085  -0.18682
C          C       0.60426   0.58320   0.43742   0.08552
C          C       0.56700   0.73493   0.32502  -0.11481
C          C       0.45211   0.62657   0.14344   0.42765
C          C       0.62100   0.63310   0.20324   0.42304
C          C       0.46569   0.55743   0.06020  -0.05350
C          C       0.39462   0.49580   0.96244  -0.07418
C          C       0.43264   0.43852   0.90370  -0.05525
C          C       0.71727   0.53154   0.61762   0.57235
C          C       0.81174   0.59443   0.71162  -0.04674
C          C       0.81292   0.62886   0.80085  -0.10253
C          C       0.90050   0.68394   0.88950  -0.10122
C          C       0.48107   0.66427   0.69795  -0.12253
C          C       0.95933   0.29329   0.41220   0.10543
C          C       0.90928   0.20244   0.37476  -0.16951
C          C       0.81691   0.18759   0.36813   0.13792
C          C       0.77878   0.26566   0.40064  -0.18663
C          C       0.83311   0.35429   0.43737   0.08664
C          C       0.75821   0.08986   0.32446  -0.11649
C          C       0.69142   0.01689   0.14270   0.42717
C          C       0.58280   0.07019   0.20334   0.42255
C          C       0.59436   0.00259   0.05982  -0.05336
C          C       0.56759   0.96653   0.96204  -0.07592
C          C       0.47094   0.96527   0.90361  -0.05317
C          C       0.89952   0.58646   0.61753   0.57251
C          C       0.89917   0.61704   0.71160  -0.04565
C          C       0.98701   0.67188   0.80089  -0.10285
C          C       0.98787   0.70533   0.88952  -0.10181
C          C       0.21684   0.53370   0.69816  -0.12227
N          N       0.02094   0.86805   0.44300  -0.24607
N          N       0.04737   0.55539   0.22514  -0.17066
N          N       0.42196   0.07460   0.44276  -0.24448
N          N       0.17741   0.16932   0.22555  -0.17043
N          N       0.97906   0.13195   0.55700  -0.24608
N          N       0.95263   0.44461   0.77486  -0.17053
N          N       0.57804   0.92541   0.55724  -0.24432
N          N       0.82259   0.83068   0.77445  -0.17035
N          N       0.47920   0.42518   0.55708  -0.24446
N          N       0.45214   0.33035   0.77445  -0.17078
N          N       0.07792   0.63175   0.55708  -0.24591
N          N       0.32201   0.94448   0.77499  -0.16990
N          N       0.52080   0.57482   0.44291  -0.24466
N          N       0.54786   0.66965   0.22555  -0.17074
N          N       0.92209   0.36825   0.44293  -0.24571
N          N       0.67799   0.05553   0.22501  -0.16992
O          O       0.87462   0.50120   0.14337  -0.40628
O          O       0.20899   0.60698   0.26221  -0.40179
O          O       0.13989   0.05154   0.61293  -0.56331
O          O       0.22056   0.09666   0.55280  -0.54235
O          O       0.96047   0.96292   0.60144  -0.48494
O          O       0.26846   0.14254   0.14389  -0.40652
O          O       0.05203   0.15577   0.26205  -0.40201
O          O       0.47259   0.06177   0.61296  -0.56188
O          O       0.33374   0.95484   0.55384  -0.54183
O          O       0.64005   0.13871   0.60108  -0.48206
O          O       0.12538   0.49880   0.85663  -0.40633
O          O       0.79101   0.39303   0.73779  -0.40170
O          O       0.86011   0.94846   0.38708  -0.56320
O          O       0.77944   0.90333   0.44720  -0.54260
O          O       0.03952   0.03709   0.39856  -0.48485
O          O       0.73153   0.85746   0.85611  -0.40639
O          O       0.94796   0.84423   0.73795  -0.40192
O          O       0.52740   0.93823   0.38704  -0.56198
O          O       0.66626   0.04516   0.44616  -0.54180
O          O       0.35994   0.86130   0.39891  -0.48228
O          O       0.62465   0.35668   0.85612  -0.40655
O          O       0.29044   0.34448   0.73814  -0.40161
O          O       0.36012   0.43837   0.38703  -0.56245
O          O       0.28003   0.54457   0.44694  -0.54234
O          O       0.53949   0.36101   0.39830  -0.48441
O          O       0.23143  -0.00116   0.85736  -0.40607
O          O       0.44631   0.89296   0.73736  -0.40118
O          O       0.02812   0.44877   0.38777  -0.56337
O          O       0.16738   0.40108   0.44626  -0.54163
O          O       0.85837   0.53766   0.39817  -0.48461
O          O       0.37535   0.64332   0.14388  -0.40642
O          O       0.70956   0.65552   0.26186  -0.40175
O          O       0.63988   0.56164   0.61297  -0.56239
O          O       0.71997   0.45544   0.55306  -0.54249
O          O       0.46051   0.63900   0.60170  -0.48425
O          O       0.76857   0.00116   0.14264  -0.40624
O          O       0.55369   0.10704   0.26263  -0.40110
O          O       0.97188   0.55124   0.61224  -0.56365
O          O       0.83262   0.59892   0.55373  -0.54131
O          O       0.14163   0.46235   0.60183  -0.48458

