data_crystal

_audit_creation_method 'AiiDA-DDEC plugin'

_cell_length_a        12.95314
_cell_length_b        12.93835
_cell_length_c        29.61607

_cell_angle_alpha     90.02040
_cell_angle_beta     90.02117
_cell_angle_gamma     102.67926

_symmetry_space_group_name_Hall 'P 1'
_symmetry_space_group_name_H-M  'P 1'

loop_
_symmetry_equiv_pos_as_xyz
 'x,y,z'

loop_
_atom_site_label
_atom_site_type_symbol
_atom_site_fract_x
_atom_site_fract_y
_atom_site_fract_z
_atom_site_charge
Cd         Cd      0.59560   0.59566   0.04369   0.90426
Cd         Cd      0.90422   0.90438   0.54373   0.90413
Cd         Cd      0.09578   0.09564   0.45627   0.90419
Cd         Cd      0.40439   0.40435   0.95631   0.90427
H          H       0.66700   0.80880   0.42036   0.10384
H          H       0.61608   0.76076   0.33047   0.11626
H          H       0.34330   0.57990   0.05969   0.10129
H          H       0.21020   0.69535   0.06226   0.14765
H          H       0.46943   0.96390   0.03936   0.14241
H          H       0.58956   0.83752   0.03561   0.09477
H          H       0.05772   0.93267   0.15345   0.13580
H          H       0.22280   0.10131   0.94452   0.13120
H          H       0.83299   0.69119   0.92039   0.10352
H          H       0.88386   0.73917   0.83052   0.11569
H          H       0.15653   0.92001   0.55974   0.10158
H          H       0.28973   0.80470   0.56210   0.14788
H          H       0.03051   0.53607   0.53910   0.14135
H          H       0.91030   0.66232   0.53555   0.09516
H          H       0.44199   0.56724   0.65330   0.13470
H          H       0.27741   0.39871   0.44418   0.13085
H          H       0.30868   0.16613   0.07974   0.10365
H          H       0.26048   0.11571   0.16960   0.11627
H          H       0.08029   0.84367   0.44016   0.10237
H          H       0.19547   0.71021   0.43787   0.14723
H          H       0.46373   0.96983   0.46094   0.14156
H          H       0.33751   0.09024   0.46414   0.09581
H          H       0.43289   0.55799   0.34671   0.13595
H          H       0.60117   0.72285   0.55583   0.13295
H          H       0.19134   0.33383   0.57975   0.10367
H          H       0.23956   0.38435   0.66963   0.11614
H          H       0.41975   0.65634   0.94015   0.10209
H          H       0.30452   0.78976   0.93781   0.14759
H          H       0.03630   0.53024   0.96079   0.14182
H          H       0.16251   0.40983   0.96410   0.09532
H          H       0.06732   0.94222   0.84660   0.13541
H          H       0.89872   0.77708   0.05553   0.13226
H          H       0.33301   0.19122   0.57964   0.10352
H          H       0.38391   0.23925   0.66954   0.11602
H          H       0.65669   0.42011   0.94031   0.10139
H          H       0.78979   0.30466   0.93774   0.14743
H          H       0.53056   0.03611   0.96064   0.14229
H          H       0.41043   0.16249   0.96439   0.09513
H          H       0.94227   0.06733   0.84656   0.13574
H          H       0.77719   0.89870   0.05548   0.13163
H          H       0.16699   0.30881   0.07961   0.10366
H          H       0.11613   0.26083   0.16948   0.11610
H          H       0.84346   0.08000   0.44027   0.10148
H          H       0.71026   0.19530   0.43790   0.14805
H          H       0.96948   0.46393   0.46090   0.14148
H          H       0.08969   0.33769   0.46446   0.09493
H          H       0.55800   0.43277   0.34671   0.13439
H          H       0.72258   0.60129   0.55582   0.13078
H          H       0.69131   0.83387   0.92026   0.10403
H          H       0.73951   0.88429   0.83040   0.11637
H          H       0.91970   0.15634   0.55984   0.10214
H          H       0.80452   0.28980   0.56213   0.14748
H          H       0.53626   0.03018   0.53906   0.14186
H          H       0.66249   0.90977   0.53586   0.09548
H          H       0.56711   0.44202   0.65330   0.13590
H          H       0.39882   0.27716   0.44417   0.13259
H          H       0.80866   0.66618   0.42026   0.10364
H          H       0.76043   0.61566   0.33038   0.11578
H          H       0.58024   0.34366   0.05985   0.10239
H          H       0.69547   0.21025   0.06220   0.14749
H          H       0.96368   0.46977   0.03921   0.14141
H          H       0.83748   0.59018   0.03590   0.09542
H          H       0.93267   0.05779   0.15340   0.13588
H          H       0.10127   0.22292   0.94447   0.13226
H          H       0.83556   0.83579   0.15560   0.09959
H          H       0.88623   0.88590   0.23465   0.10370
H          H       0.63368   0.63336   0.28127   0.09721
H          H       0.58482   0.58597   0.20193   0.11911
H          H       0.92596   0.92614   0.29643   0.10902
H          H       0.97027   0.97002   0.37601   0.12731
H          H       0.66373   0.66401   0.65565   0.09925
H          H       0.61370   0.61381   0.73470   0.10378
H          H       0.86634   0.86643   0.78125   0.09703
H          H       0.91472   0.91385   0.70192   0.11909
H          H       0.57403   0.57387   0.79633   0.10890
H          H       0.52965   0.52995   0.87589   0.12792
H          H       0.33626   0.33601   0.34435   0.09940
H          H       0.38629   0.38620   0.26530   0.10164
H          H       0.13365   0.13358   0.21875   0.09689
H          H       0.08527   0.08616   0.29809   0.11904
H          H       0.42596   0.42614   0.20367   0.10913
H          H       0.47033   0.47005   0.12412   0.12791
H          H       0.16443   0.16421   0.84441   0.09976
H          H       0.11376   0.11411   0.76535   0.10377
H          H       0.36631   0.36664   0.71874   0.09698
H          H       0.41517   0.41404   0.79807   0.11927
H          H       0.07403   0.07387   0.70357   0.10920
H          H       0.02973   0.02999   0.62399   0.12732
C          C       0.72206   0.79597   0.39453  -0.09429
C          C       0.69460   0.76918   0.34485  -0.12208
C          C       0.36713   0.66526   0.05513   0.10897
C          C       0.29376   0.72935   0.05695  -0.19324
C          C       0.33015   0.83800   0.05034   0.22444
C          C       0.43786   0.87943   0.04347  -0.19683
C          C       0.50516   0.80915   0.04150   0.09888
C          C       0.19242   0.90748   0.08907   0.43629
C          C       0.11632   0.97743   0.08714  -0.06175
C          C       0.05196   0.98263   0.12438  -0.06556
C          C       0.11151   0.04103   0.04870   0.03118
C          C       0.17704   0.03793   0.01061  -0.07877
C          C       0.17169   0.10238   0.97354  -0.04232
C          C       0.25329   0.96826   0.01030   0.42899
C          C       0.77793   0.70408   0.89454  -0.09522
C          C       0.80532   0.73073   0.84487  -0.12258
C          C       0.13272   0.83465   0.55513   0.10854
C          C       0.20615   0.77061   0.55685  -0.19356
C          C       0.16977   0.66196   0.55018   0.22364
C          C       0.06206   0.62052   0.54330  -0.19532
C          C       0.99469   0.69076   0.54144   0.09832
C          C       0.30751   0.59246   0.58888   0.43308
C          C       0.38357   0.52248   0.58695  -0.05973
C          C       0.44789   0.51730   0.62423  -0.06419
C          C       0.38840   0.45890   0.54849   0.02979
C          C       0.32291   0.46204   0.51036  -0.07725
C          C       0.32838   0.39764   0.47327  -0.04213
C          C       0.24667   0.53176   0.51005   0.42701
C          C       0.29598   0.22143   0.10554  -0.09540
C          C       0.26916   0.19432   0.15520  -0.12336
C          C       0.16555   0.86735   0.44473   0.10742
C          C       0.22956   0.79389   0.44310  -0.19372
C          C       0.33805   0.83035   0.44983   0.22426
C          C       0.37940   0.93822   0.45668  -0.19578
C          C       0.30925   0.00568   0.45840   0.09921
C          C       0.40754   0.69253   0.41113   0.43377
C          C       0.47753   0.61642   0.41306  -0.06038
C          C       0.48277   0.55208   0.37577  -0.06646
C          C       0.54106   0.61161   0.45152   0.03004
C          C       0.53783   0.67712   0.48965  -0.07660
C          C       0.60215   0.67177   0.52676  -0.04244
C          C       0.46814   0.75338   0.48997   0.42677
C          C       0.20400   0.27854   0.60554  -0.09506
C          C       0.23091   0.30576   0.65520  -0.12239
C          C       0.33449   0.63263   0.94470   0.10722
C          C       0.27048   0.70610   0.94304  -0.19344
C          C       0.16199   0.66968   0.94974   0.22371
C          C       0.12064   0.56182   0.95657  -0.19539
C          C       0.19080   0.49436   0.95833   0.09961
C          C       0.09253   0.80749   0.91099   0.43529
C          C       0.02257   0.88363   0.91290  -0.06127
C          C       0.01736   0.94800   0.87564  -0.06598
C          C       0.95900   0.88846   0.95132   0.03097
C          C       0.96215   0.82295   0.98944  -0.07824
C          C       0.89775   0.82823   0.02650  -0.04141
C          C       0.03184   0.74669   0.98980   0.42851
C          C       0.27793   0.20404   0.60548  -0.09499
C          C       0.30539   0.23084   0.65515  -0.12288
C          C       0.63286   0.33475   0.94487   0.10894
C          C       0.70623   0.27066   0.94305  -0.19346
C          C       0.66984   0.16201   0.94967   0.22428
C          C       0.56213   0.12057   0.95654  -0.19714
C          C       0.49482   0.19086   0.95850   0.09904
C          C       0.80757   0.09253   0.91093   0.43586
C          C       0.88367   0.02257   0.91286  -0.06131
C          C       0.94803   0.01738   0.87562  -0.06563
C          C       0.88848   0.95898   0.95130   0.03122
C          C       0.82295   0.96208   0.98939  -0.07893
C          C       0.82829   0.89763   0.02646  -0.04192
C          C       0.74669   0.03175   0.98970   0.42839
C          C       0.22205   0.29592   0.10546  -0.09483
C          C       0.19467   0.26927   0.15513  -0.12184
C          C       0.86728   0.16535   0.44487   0.10851
C          C       0.79385   0.22939   0.44316  -0.19362
C          C       0.83022   0.33805   0.44982   0.22362
C          C       0.93793   0.37949   0.45670  -0.19511
C          C       0.00530   0.30925   0.45856   0.09820
C          C       0.69248   0.40755   0.41112   0.43364
C          C       0.61642   0.47753   0.41305  -0.05975
C          C       0.55210   0.48270   0.37577  -0.06439
C          C       0.61160   0.54111   0.45151   0.02954
C          C       0.67708   0.53796   0.48964  -0.07738
C          C       0.67161   0.60237   0.52674  -0.04212
C          C       0.75332   0.46825   0.48995   0.42742
C          C       0.70401   0.77858   0.89446  -0.09495
C          C       0.73083   0.80569   0.84480  -0.12256
C          C       0.83444   0.13266   0.55527   0.10743
C          C       0.77044   0.20612   0.55690  -0.19368
C          C       0.66194   0.16966   0.55017   0.22404
C          C       0.62059   0.06179   0.54332  -0.19559
C          C       0.69075   0.99433   0.54161   0.09932
C          C       0.59245   0.30747   0.58888   0.43375
C          C       0.52246   0.38358   0.58694  -0.06052
C          C       0.51722   0.44792   0.62423  -0.06637
C          C       0.45893   0.38840   0.54849   0.02972
C          C       0.46216   0.32289   0.51036  -0.07668
C          C       0.39785   0.32824   0.47325  -0.04263
C          C       0.53185   0.24663   0.51003   0.42731
C          C       0.79600   0.72147   0.39446  -0.09573
C          C       0.76908   0.69425   0.34480  -0.12306
C          C       0.66550   0.36737   0.05530   0.10725
C          C       0.72951   0.29391   0.05696  -0.19363
C          C       0.83800   0.33033   0.05027   0.22360
C          C       0.87935   0.43818   0.04343  -0.19521
C          C       0.80919   0.50565   0.04167   0.09965
C          C       0.90746   0.19251   0.08901   0.43479
C          C       0.97742   0.11638   0.08710  -0.06115
C          C       0.98263   0.05201   0.12437  -0.06596
C          C       0.04099   0.11154   0.04868   0.03081
C          C       0.03784   0.17706   0.01057  -0.07823
C          C       0.10224   0.17177   0.97351  -0.04109
C          C       0.96815   0.25332   0.01020   0.42848
C          C       0.67630   0.67652   0.12634   0.55048
C          C       0.70708   0.70792   0.17383  -0.03742
C          C       0.79197   0.79237   0.18362  -0.09892
C          C       0.81986   0.81997   0.22826  -0.15137
C          C       0.67870   0.67892   0.25416  -0.15479
C          C       0.65066   0.65153   0.20975  -0.09366
C          C       0.76387   0.76389   0.26459   0.07381
C          C       0.79225   0.79206   0.31293   0.09027
C          C       0.88086   0.88067   0.32346  -0.16187
C          C       0.90543   0.90499   0.36681  -0.15896
C          C       0.84216   0.84158   0.40195  -0.00023
C          C       0.86832   0.86675   0.45081   0.55447
C          C       0.82284   0.82376   0.62631   0.55057
C          C       0.79209   0.79222   0.67379  -0.03849
C          C       0.70746   0.70756   0.68363  -0.09901
C          C       0.67995   0.67981   0.72828  -0.15211
C          C       0.82116   0.82088   0.75415  -0.15444
C          C       0.84885   0.84837   0.70973  -0.09237
C          C       0.73603   0.73594   0.76461   0.07453
C          C       0.70768   0.70783   0.81293   0.08941
C          C       0.61907   0.61926   0.82343  -0.16195
C          C       0.59451   0.59501   0.86677  -0.15934
C          C       0.65783   0.65847   0.90194   0.00000
C          C       0.63174   0.63330   0.95080   0.55522
C          C       0.17715   0.17625   0.37369   0.55057
C          C       0.20790   0.20779   0.32621  -0.03871
C          C       0.29253   0.29245   0.31637  -0.09878
C          C       0.32004   0.32020   0.27172  -0.15057
C          C       0.17883   0.17913   0.24585  -0.15455
C          C       0.15114   0.15164   0.29027  -0.09189
C          C       0.26396   0.26407   0.23539   0.07434
C          C       0.29231   0.29218   0.18707   0.08968
C          C       0.38092   0.38074   0.17658  -0.16159
C          C       0.40548   0.40500   0.13323  -0.15953
C          C       0.34216   0.34154   0.09806  -0.00019
C          C       0.36825   0.36671   0.04921   0.55555
C          C       0.32368   0.32349   0.87366   0.55005
C          C       0.29291   0.29209   0.82618  -0.03736
C          C       0.20802   0.20764   0.81638  -0.09880
C          C       0.18013   0.18004   0.77174  -0.15117
C          C       0.32129   0.32109   0.74584  -0.15467
C          C       0.34933   0.34848   0.79025  -0.09393
C          C       0.23612   0.23612   0.73541   0.07335
C          C       0.20775   0.20795   0.68708   0.09053
C          C       0.11914   0.11935   0.67655  -0.16177
C          C       0.09457   0.09502   0.63319  -0.15888
C          C       0.15784   0.15843   0.59805  -0.00045
C          C       0.13167   0.13325   0.54919   0.55479
N          N       0.47047   0.70388   0.04665  -0.23347
N          N       0.25647   0.90675   0.04977  -0.21597
N          N       0.02934   0.79602   0.54670  -0.23270
N          N       0.24343   0.59317   0.54957  -0.21470
N          N       0.20412   0.97090   0.45311  -0.23384
N          N       0.40677   0.75661   0.45046  -0.21526
N          N       0.29594   0.52910   0.95307  -0.23467
N          N       0.09331   0.74347   0.95033  -0.21532
N          N       0.52952   0.29613   0.95336  -0.23292
N          N       0.74352   0.09326   0.95023  -0.21567
N          N       0.97066   0.20399   0.45331  -0.23299
N          N       0.75656   0.40683   0.45043  -0.21497
N          N       0.79588   0.02912   0.54690  -0.23438
N          N       0.59322   0.24340   0.54954  -0.21503
N          N       0.70405   0.47090   0.04693  -0.23424
N          N       0.90668   0.25654   0.04967  -0.21509
O          O       0.20314   0.85426   0.12225  -0.39819
O          O       0.31178   0.96304   0.97792  -0.43472
O          O       0.29685   0.64574   0.62205  -0.39627
O          O       0.18823   0.53709   0.47765  -0.43327
O          O       0.35432   0.70316   0.37797  -0.39680
O          O       0.46286   0.81183   0.52239  -0.43234
O          O       0.14570   0.79681   0.87784  -0.39825
O          O       0.03707   0.68825   0.02221  -0.43355
O          O       0.79685   0.14575   0.87775  -0.39810
O          O       0.68821   0.03697   0.02208  -0.43378
O          O       0.70314   0.35427   0.37795  -0.39713
O          O       0.81177   0.46292   0.52236  -0.43353
O          O       0.64567   0.29684   0.62203  -0.39677
O          O       0.53714   0.18818   0.47761  -0.43319
O          O       0.85429   0.20320   0.12216  -0.39740
O          O       0.96292   0.31176   0.97779  -0.43354
O          O       0.81162   0.81188   0.48118  -0.56128
O          O       0.94674   0.94217   0.46119  -0.59019
O          O       0.72923   0.72447   0.09340  -0.58756
O          O       0.59540   0.59991   0.12085  -0.56223
O          O       0.68838   0.68818   0.98121  -0.56153
O          O       0.55339   0.55780   0.96114  -0.59027
O          O       0.77008   0.77590   0.59329  -0.58753
O          O       0.90390   0.90020   0.62094  -0.56195
O          O       0.31161   0.31183   0.01879  -0.56168
O          O       0.44661   0.44220   0.03887  -0.59059
O          O       0.22991   0.22411   0.40671  -0.58741
O          O       0.09610   0.09980   0.37907  -0.56189
O          O       0.18837   0.18812   0.51882  -0.56166
O          O       0.05324   0.05785   0.53882  -0.59020
O          O       0.27076   0.27554   0.90660  -0.58703
O          O       0.40458   0.40010   0.87915  -0.56227

