data_crystal

_audit_creation_method 'AiiDA-DDEC plugin'

_cell_length_a        13.34829
_cell_length_b        15.78827
_cell_length_c        16.54921

_cell_angle_alpha     89.95590
_cell_angle_beta     89.96214
_cell_angle_gamma     89.63082

_symmetry_space_group_name_Hall 'P 1'
_symmetry_space_group_name_H-M  'P 1'

loop_
_symmetry_equiv_pos_as_xyz
 'x,y,z'

loop_
_atom_site_label
_atom_site_type_symbol
_atom_site_fract_x
_atom_site_fract_y
_atom_site_fract_z
_atom_site_charge
Mn         Mn      0.82556   0.86078   0.85477   0.99439
Mn         Mn      0.67447   0.13921   0.35484   0.99495
Mn         Mn      0.17360   0.36062   0.64528   0.99516
Mn         Mn      0.32620   0.63961   0.14462   0.99681
Cr         Cr      0.11436   0.61688   0.86445   1.36608
Cr         Cr      0.38559   0.38366   0.36435   1.36585
Cr         Cr      0.88668   0.11707   0.63587   1.36567
Cr         Cr      0.61351   0.88303   0.13597   1.36546
Fe         Fe      0.09614   0.75442   0.53028   0.76651
Fe         Fe      0.40525   0.24482   0.03145   0.76715
Fe         Fe      0.90651   0.25293   0.96976   0.95925
Fe         Fe      0.59366   0.74707   0.46967   0.95896
H          H       0.01651   0.74985   0.26546   0.13131
H          H       0.94586   0.86823   0.18219   0.13644
H          H       0.97786   0.03853   0.38306   0.13256
H          H       0.04550   0.99591   0.50354   0.10940
H          H       0.07279   0.96869   0.63416   0.11066
H          H       0.19696   0.93344   0.61770   0.09581
H          H       0.02616   0.82972   0.69033   0.10289
H          H       0.13662   0.86316   0.74144   0.08391
H          H       0.29075   0.70223   0.67420   0.09189
H          H       0.29284   0.80971   0.70292   0.09147
H          H       0.30531   0.85637   0.56091   0.08443
H          H       0.39341   0.77375   0.57461   0.09489
H          H       0.29840   0.62657   0.56552   0.09670
H          H       0.35111   0.64046   0.46740   0.10171
H          H       0.18152   0.62993   0.40661   0.10425
H          H       0.20226   0.53869   0.46762   0.09720
H          H       0.05567   0.50963   0.51774   0.10515
H          H       0.91322   0.45553   0.58314   0.13940
H          H       0.70871   0.61799   0.71234   0.12346
H          H       0.81210   0.74368   0.67573   0.13772
H          H       0.13143   0.71394   0.68454   0.25576
H          H       0.27312   0.77079   0.45555   0.23160
H          H       0.48283   0.24948   0.76699   0.13199
H          H       0.55388   0.13170   0.68323   0.13637
H          H       0.52347   0.96026   0.88374   0.13302
H          H       0.45446   0.00303   0.00554   0.11025
H          H       0.42590   0.03079   0.13605   0.11149
H          H       0.30238   0.06735   0.11859   0.09560
H          H       0.47411   0.16965   0.19133   0.10265
H          H       0.36298   0.13737   0.24250   0.08515
H          H       0.21199   0.30048   0.17471   0.09291
H          H       0.20774   0.19349   0.20502   0.09168
H          H       0.19437   0.14485   0.06390   0.08589
H          H       0.10717   0.22824   0.07665   0.09430
H          H       0.20220   0.37460   0.06462   0.09654
H          H       0.15042   0.35938   0.96650   0.10184
H          H       0.32037   0.36793   0.90640   0.10357
H          H       0.30033   0.46041   0.96570   0.09633
H          H       0.44499   0.48968   0.01751   0.10471
H          H       0.58674   0.54453   0.08406   0.13886
H          H       0.79227   0.38254   0.21260   0.12325
H          H       0.68973   0.25652   0.17591   0.13797
H          H       0.37073   0.28636   0.18512   0.25539
H          H       0.22759   0.22858   0.95710   0.23280
H          H       0.98513   0.25818   0.23347   0.13345
H          H       0.05593   0.37513   0.31731   0.13573
H          H       0.02441   0.54687   0.11712   0.13229
H          H       0.95384   0.50699   0.99642   0.10085
H          H       0.91679   0.47952   0.86521   0.10829
H          H       0.79652   0.43839   0.88475   0.09625
H          H       0.97321   0.34056   0.81124   0.09873
H          H       0.86235   0.37269   0.75954   0.08158
H          H       0.71494   0.20653   0.82128   0.09326
H          H       0.70541   0.31572   0.79972   0.09271
H          H       0.69700   0.35153   0.94466   0.08752
H          H       0.60990   0.27003   0.92686   0.09730
H          H       0.71304   0.12000   0.92775   0.09800
H          H       0.65135   0.13218   0.02294   0.10068
H          H       0.81472   0.11855   0.09323   0.09986
H          H       0.79792   0.02837   0.03108   0.09264
H          H       0.95056   0.99698   0.98086   0.09941
H          H       0.09482   0.94698   0.91786   0.13869
H          H       0.29230   0.11029   0.78493   0.12451
H          H       0.18590   0.23497   0.82202   0.14001
H          H       0.87337   0.22313   0.81187   0.25605
H          H       0.73128   0.25975   0.04372   0.23633
H          H       0.51554   0.74169   0.73334   0.13349
H          H       0.44407   0.62481   0.81734   0.13586
H          H       0.47476   0.45330   0.61709   0.13246
H          H       0.54587   0.49312   0.49639   0.10088
H          H       0.58310   0.52071   0.36524   0.10836
H          H       0.70348   0.56168   0.38453   0.09634
H          H       0.52686   0.65969   0.31117   0.09924
H          H       0.63778   0.62765   0.25945   0.08217
H          H       0.78516   0.79358   0.32073   0.09310
H          H       0.79460   0.68437   0.29945   0.09240
H          H       0.80317   0.64861   0.44432   0.08790
H          H       0.89025   0.73012   0.42622   0.09674
H          H       0.78700   0.88016   0.42724   0.09811
H          H       0.84878   0.86803   0.52232   0.10108
H          H       0.68529   0.88115   0.59282   0.10033
H          H       0.70209   0.97161   0.53082   0.09309
H          H       0.54928   0.00296   0.48039   0.09942
H          H       0.40506   0.05284   0.41684   0.13850
H          H       0.20767   0.88896   0.28493   0.12497
H          H       0.31470   0.76453   0.32189   0.14009
H          H       0.62675   0.77708   0.31163   0.25615
H          H       0.76915   0.74031   0.54340   0.23642
C          C       0.01511   0.76952   0.85532   0.46314
C          C       0.93351   0.70131   0.84837   0.46962
C          C       0.76809   0.87153   0.02590   0.46071
C          C       0.67073   0.86826   0.97627   0.47323
C          C       0.85312   0.96049   0.70717   0.46403
C          C       0.84012   0.02619   0.77512   0.46305
C          C       0.48475   0.23069   0.35534   0.46307
C          C       0.56641   0.29883   0.34834   0.46915
C          C       0.73223   0.12845   0.52583   0.46124
C          C       0.82963   0.13174   0.47614   0.47355
C          C       0.64691   0.03964   0.20707   0.46466
C          C       0.66000   0.97387   0.27505   0.46318
C          C       0.98467   0.26968   0.64476   0.46465
C          C       0.06685   0.20120   0.65171   0.47143
C          C       0.23068   0.37245   0.47423   0.46255
C          C       0.32821   0.36865   0.52387   0.47275
C          C       0.14643   0.46026   0.79313   0.46370
C          C       0.15816   0.52587   0.72496   0.46355
C          C       0.51546   0.73045   0.14431   0.46410
C          C       0.43318   0.79901   0.15024   0.47203
C          C       0.26879   0.62758   0.97431   0.46202
C          C       0.17131   0.63149   0.02401   0.47363
C          C       0.35349   0.54025   0.29198   0.46668
C          C       0.34193   0.47420   0.22445   0.46201
C          C       0.03636   0.82534   0.37243   0.30905
C          C       0.00744   0.81304   0.29066  -0.19735
C          C       0.96915   0.87889   0.24435  -0.10735
C          C       0.95915   0.96042   0.27817   0.10461
C          C       0.98615   0.97546   0.35737  -0.18911
C          C       0.02517   0.90873   0.40563  -0.08068
C          C       0.05451   0.92930   0.48618   0.11242
C          C       0.11859   0.91265   0.62019  -0.06407
C          C       0.10587   0.84360   0.68295  -0.07503
C          C       0.26644   0.76591   0.65612  -0.06048
C          C       0.31286   0.78861   0.57428  -0.06957
C          C       0.28414   0.65120   0.50464  -0.05542
C          C       0.19335   0.60770   0.46881  -0.06912
C          C       0.03986   0.57500   0.53606   0.09442
C          C       0.94959   0.58928   0.58106  -0.06314
C          C       0.88972   0.51876   0.60140  -0.18133
C          C       0.80282   0.53008   0.64616   0.11165
C          C       0.77502   0.61069   0.67472  -0.10657
C          C       0.83197   0.68073   0.65400  -0.21037
C          C       0.91838   0.67264   0.60458   0.29498
C          C       0.46387   0.17319   0.87392   0.30903
C          C       0.49221   0.18617   0.79204  -0.19760
C          C       0.53079   0.12072   0.74546  -0.10783
C          C       0.54148   0.03910   0.77914   0.10425
C          C       0.51472   0.02346   0.85839  -0.18736
C          C       0.47551   0.08980   0.90701  -0.07951
C          C       0.44603   0.06955   0.98772   0.11301
C          C       0.38106   0.08724   0.12146  -0.06478
C          C       0.39424   0.15640   0.18397  -0.07691
C          C       0.23478   0.23619   0.15743  -0.05988
C          C       0.18757   0.21285   0.07617  -0.07037
C          C       0.21697   0.34890   0.00426  -0.05426
C          C       0.30839   0.39135   0.96816  -0.06920
C          C       0.46106   0.42446   0.03620   0.09418
C          C       0.55107   0.41055   0.08169  -0.06359
C          C       0.61044   0.48128   0.10217  -0.18138
C          C       0.69749   0.47018   0.14672   0.11160
C          C       0.72586   0.38966   0.17516  -0.10766
C          C       0.66938   0.31945   0.15442  -0.21074
C          C       0.58294   0.32728   0.10509   0.29580
C          C       0.96561   0.33495   0.12674   0.30974
C          C       0.99415   0.32139   0.20831  -0.19826
C          C       0.03279   0.38643   0.25514  -0.11460
C          C       0.04313   0.46774   0.22157   0.10566
C          C       0.01588   0.48367   0.14226  -0.18721
C          C       0.97646   0.41823   0.09368  -0.07691
C          C       0.94516   0.44014   0.01302   0.12082
C          C       0.87652   0.42148   0.88138  -0.06282
C          C       0.89277   0.35278   0.81814  -0.07092
C          C       0.73554   0.26955   0.84323  -0.05795
C          C       0.69015   0.28496   0.92680  -0.06986
C          C       0.72137   0.14299   0.98981  -0.05501
C          C       0.80881   0.09699   0.03028  -0.06380
C          C       0.96480   0.06354   0.96582   0.12268
C          C       0.05474   0.08013   0.92003  -0.06668
C          C       0.11617   0.01034   0.89898  -0.17714
C          C       0.20189   0.02193   0.85281   0.11057
C          C       0.22685   0.10245   0.82335  -0.10778
C          C       0.16796   0.17200   0.84431  -0.20726
C          C       0.08286   0.16356   0.89491   0.30606
C          C       0.53460   0.66501   0.62667   0.31018
C          C       0.50614   0.67855   0.70826  -0.19753
C          C       0.46717   0.61358   0.75514  -0.11513
C          C       0.45633   0.53237   0.72156   0.10616
C          C       0.48361   0.51642   0.64226  -0.18707
C          C       0.52343   0.58180   0.59366  -0.07749
C          C       0.55473   0.55993   0.51298   0.12108
C          C       0.62350   0.57868   0.38129  -0.06294
C          C       0.60728   0.64746   0.31805  -0.07166
C          C       0.76452   0.73060   0.34288  -0.05741
C          C       0.81001   0.71519   0.42638  -0.07054
C          C       0.77873   0.85713   0.48934  -0.05605
C          C       0.69120   0.90299   0.52990  -0.06431
C          C       0.53519   0.93640   0.46539   0.12342
C          C       0.44543   0.91970   0.41948  -0.06641
C          C       0.38385   0.98937   0.39828  -0.17722
C          C       0.29804   0.97753   0.35237   0.11078
C          C       0.27327   0.89697   0.32308  -0.10686
C          C       0.33246   0.82758   0.34400  -0.20780
C          C       0.41744   0.83622   0.39460   0.30507
N          N       0.09053   0.87711   0.54058  -0.20944
N          N       0.15537   0.76564   0.65246  -0.29230
N          N       0.25938   0.74262   0.51025  -0.29590
N          N       0.10507   0.63283   0.51644  -0.19937
N          N       0.41036   0.12221   0.04188  -0.20852
N          N       0.34593   0.23486   0.15323  -0.29160
N          N       0.24119   0.25753   0.01136  -0.29869
N          N       0.39619   0.36647   0.01647  -0.20012
N          N       0.90795   0.38788   0.96030  -0.26733
N          N       0.84672   0.27260   0.84591  -0.32306
N          N       0.74548   0.23451   0.98768  -0.31828
N          N       0.90042   0.12097   0.98790  -0.25890
N          N       0.59218   0.61216   0.46027  -0.26732
N          N       0.65335   0.72760   0.34573  -0.32348
N          N       0.75481   0.76557   0.48737  -0.31767
N          N       0.59962   0.87905   0.48755  -0.25873
Cl         Cl      0.91438   0.04356   0.21837  -0.07707
Cl         Cl      0.72578   0.44348   0.66668  -0.06866
Cl         Cl      0.58684   0.95668   0.71874  -0.07726
Cl         Cl      0.77425   0.55698   0.16673  -0.06842
Cl         Cl      0.08812   0.55008   0.28179  -0.07719
Cl         Cl      0.28040   0.93561   0.83190  -0.06899
Cl         Cl      0.41060   0.45020   0.78175  -0.07698
Cl         Cl      0.21909   0.06361   0.33155  -0.06870
O          O       0.10590   0.74186   0.85717  -0.52560
O          O       0.96623   0.62457   0.84523  -0.53229
O          O       0.98935   0.84598   0.85689  -0.46634
O          O       0.84348   0.72454   0.84525  -0.46140
O          O       0.84971   0.87046   0.98832  -0.47750
O          O       0.75731   0.87857   0.10283  -0.52952
O          O       0.67612   0.85828   0.90106  -0.46639
O          O       0.58951   0.87885   0.01678  -0.52757
O          O       0.83843   0.88369   0.72287  -0.47779
O          O       0.87953   0.99077   0.63835  -0.52815
O          O       0.81850   0.00062   0.84465  -0.47062
O          O       0.85359   0.10391   0.75378  -0.52922
O          O       0.39399   0.25842   0.35721  -0.52372
O          O       0.53381   0.37560   0.34522  -0.53228
O          O       0.51047   0.15418   0.35696  -0.46622
O          O       0.65644   0.27550   0.34523  -0.46131
O          O       0.65062   0.12945   0.48829  -0.47808
O          O       0.74288   0.12152   0.60277  -0.52919
O          O       0.82412   0.14169   0.40093  -0.46747
O          O       0.91089   0.12122   0.51659  -0.52757
O          O       0.66152   0.11642   0.22282  -0.47853
O          O       0.62052   0.00943   0.13829  -0.52836
O          O       0.68156  -0.00062   0.34454  -0.47090
O          O       0.64648   0.89616   0.25381  -0.52912
O          O       0.89419   0.24211   0.64286  -0.52641
O          O       0.03492   0.12453   0.65479  -0.53565
O          O       0.00997   0.34598   0.64312  -0.46408
O          O       0.15662   0.22427   0.65485  -0.46435
O          O       0.14876   0.37117   0.51138  -0.47552
O          O       0.24214   0.37922   0.39727  -0.53113
O          O       0.32333   0.35824   0.59905  -0.46761
O          O       0.40938   0.37880   0.48333  -0.52807
O          O       0.16118   0.38337   0.77728  -0.47996
O          O       0.12107   0.49066   0.86221  -0.52577
O          O       0.17709   0.50020   0.65500  -0.46941
O          O       0.14644   0.60385   0.74647  -0.52724
O          O       0.60598   0.75796   0.14293  -0.52640
O          O       0.46519   0.87559   0.15458  -0.53692
O          O       0.49014   0.65414   0.14302  -0.46379
O          O       0.34328   0.77615   0.15153  -0.46484
O          O       0.35062   0.62868   0.01146  -0.47603
O          O       0.25764   0.62096   0.89735  -0.53036
O          O       0.17631   0.64180   0.09916  -0.46802
O          O       0.09020   0.62152   0.98348  -0.52724
O          O       0.33867   0.61693   0.27485  -0.48254
O          O       0.37886   0.51079   0.36140  -0.52529
O          O       0.32294   0.49960   0.15445  -0.46809
O          O       0.35379   0.39635   0.24645  -0.52765
O          O       0.07100   0.76032   0.41337  -0.47944
O          O       0.96407   0.74128   0.57913  -0.46464
O          O       0.42910   0.23789   0.91520  -0.47747
O          O       0.53793   0.25850   0.07940  -0.46716
O          O       0.93116   0.27100   0.08419  -0.51401
O          O       0.03553   0.23245   0.91955  -0.50002
O          O       0.56938   0.72894   0.58412  -0.51441
O          O       0.46455   0.76740   0.41970  -0.49970

