data_crystal

_audit_creation_method 'AiiDA-DDEC plugin'

_cell_length_a        11.84811
_cell_length_b        18.44717
_cell_length_c        18.84673

_cell_angle_alpha     90.00721
_cell_angle_beta     90.00000
_cell_angle_gamma     90.00000

_symmetry_space_group_name_Hall 'P 1'
_symmetry_space_group_name_H-M  'P 1'

loop_
_symmetry_equiv_pos_as_xyz
 'x,y,z'

loop_
_atom_site_label
_atom_site_type_symbol
_atom_site_fract_x
_atom_site_fract_y
_atom_site_fract_z
_atom_site_charge
Cu         Cu      0.08932   0.27909   0.27065   0.92836
Cu         Cu      0.93884   0.21254   0.20619   0.89403
Cu         Cu      0.08932   0.72091   0.72935   0.92842
Cu         Cu      0.93884   0.78745   0.79382   0.89402
Cu         Cu      0.91110   0.21976   0.77042   0.91797
Cu         Cu      0.06219   0.28605   0.70582   0.89565
Cu         Cu      0.91110   0.78024   0.22958   0.91788
Cu         Cu      0.06219   0.71395   0.29418   0.89571
H          H       0.96687   0.49561   0.25149   0.12340
H          H       0.66874   0.37517   0.19413   0.14771
H          H       0.65597   0.60881   0.21397   0.13672
H          H       0.48334   0.57116   0.25421   0.09215
H          H       0.47838   0.58589   0.15990   0.08542
H          H       0.32123   0.49390   0.15140   0.07234
H          H       0.28815   0.57112   0.20413   0.07903
H          H       0.17158   0.52897   0.29485   0.08475
H          H       0.15130   0.45591   0.23351   0.08082
H          H       0.10129   0.41860   0.35724   0.10730
H          H       0.24224   0.43877   0.38563   0.09311
H          H       0.02337   0.24864   0.98811   0.12427
H          H       0.29987   0.34816   0.09890   0.13281
H          H       0.29398   0.34611   0.86971   0.12821
H          H       0.45762   0.45797   0.05692   0.07224
H          H       0.46942   0.36320   0.07608   0.09313
H          H       0.65639   0.42730   0.05088   0.05904
H          H       0.61206   0.43421   0.96066   0.06427
H          H       0.75529   0.32595   0.92199   0.06572
H          H       0.80153   0.35101   0.00867   0.06583
H          H       0.75326   0.22887   0.05433   0.07679
H          H       0.86105   0.22689   0.98877   0.05653
H          H       0.28845   0.35568   0.28749   0.37975
H          H       0.72439   0.18587   0.91065   0.31666
H          H       0.96687   0.50439   0.74851   0.12341
H          H       0.66874   0.62483   0.80587   0.14759
H          H       0.65597   0.39119   0.78603   0.13686
H          H       0.48334   0.42883   0.74579   0.09208
H          H       0.47838   0.41411   0.84010   0.08410
H          H       0.32123   0.50610   0.84860   0.07239
H          H       0.28815   0.42888   0.79587   0.07917
H          H       0.17158   0.47103   0.70516   0.08485
H          H       0.15130   0.54409   0.76650   0.08095
H          H       0.10129   0.58140   0.64276   0.11145
H          H       0.24224   0.56123   0.61438   0.09290
H          H       0.02337   0.75136   0.01190   0.12418
H          H       0.29987   0.65184   0.90110   0.13281
H          H       0.29398   0.65389   0.13029   0.12834
H          H       0.45762   0.54203   0.94308   0.07234
H          H       0.46942   0.63680   0.92392   0.09297
H          H       0.65639   0.57270   0.94912   0.05897
H          H       0.61206   0.56579   0.03935   0.06447
H          H       0.75529   0.67405   0.07801   0.06586
H          H       0.80153   0.64898   0.99133   0.06581
H          H       0.75326   0.77113   0.94567   0.07661
H          H       0.86105   0.77311   0.01123   0.05650
H          H       0.28845   0.64431   0.71251   0.37993
H          H       0.72439   0.81413   0.08936   0.31675
H          H       0.03681   0.00606   0.75299   0.12291
H          H       0.33640   0.12430   0.69454   0.14906
H          H       0.34549   0.89063   0.71472   0.13562
H          H       0.51868   0.92693   0.75448   0.09192
H          H       0.52379   0.91222   0.66019   0.08385
H          H       0.68153   0.00316   0.65139   0.07357
H          H       0.71434   0.92638   0.70480   0.07990
H          H       0.83196   0.96944   0.79447   0.08507
H          H       0.85168   0.04265   0.73329   0.08038
H          H       0.90053   0.08038   0.85747   0.10622
H          H       0.75964   0.05890   0.88523   0.09192
H          H       0.97605   0.24942   0.48813   0.12299
H          H       0.69893   0.15103   0.59918   0.13375
H          H       0.70319   0.15411   0.37005   0.12796
H          H       0.53894   0.04192   0.55567   0.07266
H          H       0.53041   0.13595   0.57792   0.09357
H          H       0.34151   0.07141   0.55137   0.05895
H          H       0.38380   0.07242   0.46054   0.06350
H          H       0.24612   0.17495   0.42655   0.06496
H          H       0.19286   0.15187   0.51237   0.06564
H          H       0.23568   0.27659   0.55551   0.07724
H          H       0.13341   0.27402   0.48662   0.05668
H          H       0.71249   0.14179   0.78731   0.37981
H          H       0.27383   0.31366   0.41110   0.31813
H          H       0.03681   0.99394   0.24701   0.12289
H          H       0.33640   0.87569   0.30546   0.14917
H          H       0.34549   0.10936   0.28529   0.13548
H          H       0.51868   0.07307   0.24553   0.09172
H          H       0.52379   0.08778   0.33981   0.08387
H          H       0.68153   0.99684   0.34861   0.07367
H          H       0.71434   0.07362   0.29521   0.07970
H          H       0.83196   0.03056   0.20553   0.08492
H          H       0.85168   0.95735   0.26671   0.08050
H          H       0.90053   0.91962   0.14254   0.10620
H          H       0.75964   0.94110   0.11477   0.09176
H          H       0.97605   0.75057   0.51187   0.12308
H          H       0.69893   0.84897   0.40082   0.13362
H          H       0.70319   0.84589   0.62995   0.12804
H          H       0.53894   0.95808   0.44433   0.07247
H          H       0.53041   0.86405   0.42209   0.09363
H          H       0.34151   0.92858   0.44863   0.05882
H          H       0.38380   0.92758   0.53946   0.06356
H          H       0.24612   0.82505   0.57345   0.06504
H          H       0.19286   0.84812   0.48763   0.06545
H          H       0.23568   0.72341   0.44449   0.07714
H          H       0.13341   0.72598   0.51338   0.05669
H          H       0.71249   0.85821   0.21269   0.37987
H          H       0.27383   0.68634   0.58891   0.31817
C          C       0.81685   0.55869   0.23346  -0.00391
C          C       0.87825   0.49431   0.23728  -0.13227
C          C       0.82522   0.42831   0.22164  -0.01008
C          C       0.71029   0.42652   0.20507  -0.19458
C          C       0.64747   0.49112   0.20474   0.24376
C          C       0.70124   0.55771   0.21665  -0.23025
C          C       0.87596   0.62899   0.24688   0.58802
C          C       0.89224   0.35980   0.22516   0.58266
C          C       0.46362   0.54626   0.20268  -0.01703
C          C       0.34155   0.52216   0.20136  -0.00887
C          C       0.20178   0.47462   0.27907  -0.03797
C          C       0.18956   0.42251   0.34042   0.03139
C          C       0.15128   0.29742   0.92169  -0.01223
C          C       0.10310   0.27748   0.98664  -0.12874
C          C       0.15847   0.29553   0.04957  -0.00736
C          C       0.26111   0.33394   0.04860  -0.22122
C          C       0.31002   0.35237   0.98343   0.25498
C          C       0.25505   0.33321   0.92022  -0.19437
C          C       0.09138   0.28181   0.85367   0.58862
C          C       0.10682   0.27506   0.11904   0.58767
C          C       0.48020   0.40471   0.03498  -0.01202
C          C       0.60174   0.40247   0.00996  -0.01931
C          C       0.74349   0.31517   0.97915  -0.02636
C          C       0.77046   0.23670   0.99757   0.04530
C          C       0.81685   0.44130   0.76654  -0.00379
C          C       0.87825   0.50569   0.76272  -0.13238
C          C       0.82522   0.57168   0.77836  -0.01007
C          C       0.71029   0.57347   0.79493  -0.19451
C          C       0.64747   0.50887   0.79526   0.24371
C          C       0.70124   0.44229   0.78335  -0.23019
C          C       0.87596   0.37100   0.75312   0.58804
C          C       0.89224   0.64020   0.77484   0.58274
C          C       0.46362   0.45374   0.79733  -0.01590
C          C       0.34155   0.47784   0.79864  -0.00878
C          C       0.20178   0.52537   0.72093  -0.03850
C          C       0.18956   0.57749   0.65959   0.02861
C          C       0.15128   0.70258   0.07831  -0.01225
C          C       0.10310   0.72252   0.01336  -0.12874
C          C       0.15847   0.70446   0.95043  -0.00725
C          C       0.26111   0.66605   0.95140  -0.22145
C          C       0.31002   0.64762   0.01658   0.25499
C          C       0.25505   0.66679   0.07978  -0.19442
C          C       0.09138   0.71819   0.14633   0.58842
C          C       0.10682   0.72494   0.88096   0.58767
C          C       0.48020   0.59529   0.96502  -0.01218
C          C       0.60174   0.59752   0.99005  -0.01919
C          C       0.74349   0.68483   0.02086  -0.02627
C          C       0.77046   0.76330   0.00243   0.04539
C          C       0.18557   0.94191   0.73467  -0.00302
C          C       0.12538   0.00667   0.73871  -0.13083
C          C       0.17938   0.07218   0.72277  -0.01225
C          C       0.29420   0.07326   0.70593  -0.19417
C          C       0.35589   0.00820   0.70552   0.24375
C          C       0.30109   0.94204   0.71764  -0.23072
C          C       0.12475   0.87222   0.74731   0.58758
C          C       0.11254   0.14068   0.72543   0.58825
C          C       0.53890   0.95178   0.70300  -0.01409
C          C       0.66122   0.97542   0.70162  -0.01301
C          C       0.80136   0.02371   0.77883  -0.03569
C          C       0.81248   0.07582   0.84031   0.03291
C          C       0.84739   0.20148   0.42172  -0.01114
C          C       0.89601   0.22099   0.48669  -0.12905
C          C       0.84086   0.20301   0.54972  -0.00700
C          C       0.73760   0.16527   0.54886  -0.22279
C          C       0.68775   0.14779   0.48372   0.25871
C          C       0.74287   0.16658   0.42044  -0.19743
C          C       0.90759   0.21672   0.35365   0.58848
C          C       0.89314   0.22313   0.61913   0.58885
C          C       0.51711   0.09604   0.53559  -0.01239
C          C       0.39490   0.09994   0.51210  -0.01418
C          C       0.25311   0.18706   0.48372  -0.02796
C          C       0.22352   0.26589   0.49868   0.04711
C          C       0.18557   0.05809   0.26533  -0.00307
C          C       0.12538   0.99333   0.26129  -0.13092
C          C       0.17938   0.92782   0.27723  -0.01211
C          C       0.29420   0.92674   0.29407  -0.19414
C          C       0.35589   0.99180   0.29448   0.24368
C          C       0.30109   0.05796   0.28236  -0.23068
C          C       0.12475   0.12777   0.25269   0.58754
C          C       0.11254   0.85931   0.27458   0.58827
C          C       0.53890   0.04822   0.29701  -0.01420
C          C       0.66122   0.02458   0.29839  -0.01270
C          C       0.80136   0.97629   0.22117  -0.03567
C          C       0.81248   0.92417   0.15969   0.03290
C          C       0.84739   0.79852   0.57828  -0.01108
C          C       0.89601   0.77901   0.51332  -0.12908
C          C       0.84086   0.79699   0.45029  -0.00698
C          C       0.73760   0.83472   0.45114  -0.22279
C          C       0.68775   0.85221   0.51629   0.25860
C          C       0.74287   0.83342   0.57956  -0.19740
C          C       0.90759   0.78328   0.64636   0.58831
C          C       0.89314   0.77687   0.38087   0.58888
C          C       0.51711   0.90396   0.46441  -0.01249
C          C       0.39490   0.90006   0.48790  -0.01431
C          C       0.25311   0.81294   0.51628  -0.02783
C          C       0.22352   0.73411   0.50132   0.04706
O          O       0.85039   0.30294   0.19655  -0.53012
O          O       0.98736   0.36369   0.25712  -0.55806
O          O       0.97128   0.62544   0.27889  -0.54890
O          O       0.82799   0.68682   0.22479  -0.54246
O          O       0.53418   0.48328   0.19227  -0.20318
O          O       0.31972   0.47644   0.26119  -0.24334
O          O       0.22327   0.34933   0.31870  -0.48247
O          O       0.13785   0.30548   0.79670  -0.54677
O          O      -0.00180   0.24714   0.85729  -0.54233
O          O       0.01747   0.23601   0.11733  -0.54026
O          O       0.15525   0.29848   0.17516  -0.55949
O          O       0.40927   0.38918   0.97440  -0.20742
O          O       0.62886   0.32818  -0.00001  -0.22712
O          O       0.70272   0.18504   0.96072  -0.48877
O          O       0.85039   0.69706   0.80345  -0.53009
O          O       0.98736   0.63631   0.74288  -0.55860
O          O       0.97128   0.37456   0.72111  -0.54909
O          O       0.82799   0.31318   0.77521  -0.54234
O          O       0.53418   0.51671   0.80773  -0.20314
O          O       0.31972   0.52356   0.73881  -0.24344
O          O       0.22327   0.65067   0.68130  -0.48326
O          O       0.13785   0.69452   0.20331  -0.54644
O          O      -0.00180   0.75286   0.14271  -0.54243
O          O       0.01747   0.76398   0.88267  -0.54024
O          O       0.15525   0.70152   0.82484  -0.55949
O          O       0.40927   0.61081   0.02561  -0.20717
O          O       0.62886   0.67181   0.00001  -0.22732
O          O       0.70272   0.81496   0.03928  -0.48890
O          O       0.15458   0.19705   0.69616  -0.52857
O          O       0.01721   0.13727   0.75710  -0.56277
O          O       0.02909   0.87625   0.77885  -0.54675
O          O       0.17196   0.81431   0.72476  -0.54629
O          O       0.46909   0.01506   0.69242  -0.20387
O          O       0.68351   0.02162   0.76103  -0.24342
O          O       0.77732   0.14876   0.81868  -0.48099
O          O       0.86159   0.19278   0.29662  -0.54842
O          O       0.00078   0.25140   0.35723  -0.54620
O          O       0.98270   0.26200   0.61733  -0.54207
O          O       0.84488   0.19970   0.67529  -0.55766
O          O       0.58724   0.11250   0.47470  -0.21019
O          O       0.36615   0.17452   0.50769  -0.22717
O          O       0.29224   0.31682   0.46151  -0.49090
O          O       0.15458   0.80294   0.30384  -0.52848
O          O       0.01721   0.86273   0.24290  -0.56297
O          O       0.02909   0.12374   0.22115  -0.54670
O          O       0.17196   0.18569   0.27524  -0.54624
O          O       0.46909   0.98494   0.30759  -0.20364
O          O       0.68351   0.97838   0.23897  -0.24347
O          O       0.77732   0.85124   0.18132  -0.48091
O          O       0.86159   0.80722   0.70338  -0.54836
O          O       0.00078   0.74860   0.64277  -0.54611
O          O       0.98270   0.73800   0.38267  -0.54200
O          O       0.84488   0.80030   0.32471  -0.55776
O          O       0.58724   0.88750   0.52530  -0.20999
O          O       0.36615   0.82548   0.49231  -0.22703
O          O       0.29224   0.68318   0.53850  -0.49071

