data_crystal

_audit_creation_method 'AiiDA-DDEC plugin'

_cell_length_a        11.40210
_cell_length_b        23.16688
_cell_length_c        29.43468

_cell_angle_alpha     89.99683
_cell_angle_beta     89.99592
_cell_angle_gamma     89.98351

_symmetry_space_group_name_Hall 'P 1'
_symmetry_space_group_name_H-M  'P 1'

loop_
_symmetry_equiv_pos_as_xyz
 'x,y,z'

loop_
_atom_site_label
_atom_site_type_symbol
_atom_site_fract_x
_atom_site_fract_y
_atom_site_fract_z
_atom_site_charge
Cd         Cd      0.55460   0.19266   0.11888   1.05930
Cd         Cd      0.74745   0.09512   0.06604   1.04542
Cd         Cd      0.94552   0.19271   0.38113   1.05943
Cd         Cd      0.75228   0.09500   0.43369   1.04514
Cd         Cd      0.05408   0.30733   0.88108   1.05990
Cd         Cd      0.24762   0.40495   0.93387   1.04550
Cd         Cd      0.44567   0.30726   0.61875   1.06029
Cd         Cd      0.25238   0.40492   0.56618   1.04534
Cd         Cd      0.44547   0.80725   0.88115   1.05999
Cd         Cd      0.25249   0.90492   0.93392   1.04604
Cd         Cd      0.05395   0.80720   0.61884   1.05945
Cd         Cd      0.24750   0.90490   0.56645   1.04617
Cd         Cd      0.94520   0.69269   0.11875   1.05925
Cd         Cd      0.75230   0.59501   0.06621   1.04521
Cd         Cd      0.55445   0.69271   0.38118   1.05994
Cd         Cd      0.74737   0.59511   0.43394   1.04560
H          H       0.57091   0.03934   0.23620   0.13481
H          H       0.58970   0.85740   0.20257   0.12683
H          H       0.56746   0.98642   0.09743   0.12895
H          H       0.60396   0.89533   0.40475   0.14255
H          H       0.63546   0.01840   0.29690   0.12703
H          H       0.53576   0.84110   0.26807   0.13172
H          H       0.55551   0.75306   0.01599   0.14328
H          H       0.67926   0.80738   0.14686   0.12492
H          H       0.46198   0.92106   0.06513   0.13020
H          H       0.92898   0.03924   0.26370   0.13434
H          H       0.91015   0.85731   0.29736   0.13110
H          H       0.93262   0.98643   0.40246   0.12850
H          H       0.89618   0.89530   0.09514   0.14201
H          H       0.86468   0.01854   0.20293   0.13175
H          H       0.96394   0.84117   0.23185   0.13100
H          H       0.94469   0.75315   0.48409   0.14364
H          H       0.82079   0.80731   0.35320   0.12437
H          H       0.03810   0.92108   0.43484   0.13054
H          H       0.07085   0.46071   0.76379   0.13497
H          H       0.08988   0.64265   0.79743   0.12914
H          H       0.06737   0.51361   0.90256   0.12904
H          H       0.10336   0.60467   0.59522   0.14256
H          H       0.13598   0.48156   0.70303   0.12731
H          H       0.03530   0.65876   0.73193   0.13147
H          H       0.05536   0.74682   0.98410   0.14325
H          H       0.17917   0.69265   0.85320   0.12427
H          H       0.96199   0.57890   0.93492   0.13020
H          H       0.42892   0.46068   0.73622   0.13491
H          H       0.41015   0.64263   0.70263   0.12663
H          H       0.43238   0.51364   0.59747   0.12814
H          H       0.39652   0.60467   0.90482   0.14287
H          H       0.36414   0.48156   0.79699   0.12734
H          H       0.46426   0.65880   0.76811   0.13112
H          H       0.44441   0.74696   0.51600   0.14312
H          H       0.32058   0.69261   0.64688   0.12494
H          H       0.53786   0.57893   0.56516   0.13067
H          H       0.42904   0.96069   0.76380   0.13506
H          H       0.41028   0.14261   0.79748   0.12656
H          H       0.43251   0.01355   0.90260   0.12876
H          H       0.39634   0.10468   0.59529   0.14233
H          H       0.36420   0.98170   0.70319   0.12710
H          H       0.46444   0.15894   0.73198   0.13139
H          H       0.44447   0.24693   0.98401   0.14314
H          H       0.32064   0.19255   0.85315   0.12449
H          H       0.53799   0.07893   0.93490   0.13043
H          H       0.07109   0.96083   0.73632   0.13482
H          H       0.08990   0.14275   0.70264   0.12697
H          H       0.06749   0.01364   0.59754   0.12835
H          H       0.10319   0.10480   0.90492   0.14283
H          H       0.13578   0.98165   0.79709   0.12768
H          H       0.03553   0.15889   0.76816   0.13129
H          H       0.05527   0.24683   0.51592   0.14321
H          H       0.17916   0.19269   0.64682   0.12456
H          H       0.96200   0.07889   0.56516   0.13044
H          H       0.92907   0.53929   0.23618   0.13474
H          H       0.91022   0.35734   0.20258   0.13090
H          H       0.93260   0.48635   0.09743   0.12883
H          H       0.89616   0.39535   0.40479   0.14249
H          H       0.86467   0.51856   0.29702   0.12691
H          H       0.96400   0.34118   0.26809   0.13117
H          H       0.94465   0.25316   0.01588   0.14318
H          H       0.82097   0.30730   0.14682   0.12441
H          H       0.03807   0.42106   0.06508   0.13003
H          H       0.57099   0.53932   0.26374   0.13447
H          H       0.58983   0.35738   0.29737   0.12693
H          H       0.56768   0.48641   0.40251   0.12806
H          H       0.60370   0.39528   0.09516   0.14233
H          H       0.63558   0.51838   0.20301   0.13141
H          H       0.53580   0.34112   0.23188   0.13175
H          H       0.55548   0.25308   0.48402   0.14311
H          H       0.67926   0.30732   0.35311   0.12506
H          H       0.46219   0.42111   0.43487   0.13026
C          C       0.55986   0.08029   0.15148   0.56385
C          C       0.56900   0.01836   0.16575  -0.02552
C          C       0.57513   0.00415   0.21178  -0.08596
C          C       0.58341   0.94572   0.22597   0.07876
C          C       0.58450   0.90246   0.19249  -0.17224
C          C       0.57591   0.91573   0.14607   0.08539
C          C       0.56950   0.97459   0.13313  -0.09110
C          C       0.54163   0.80327   0.35367   0.53467
C          C       0.65881   0.00829   0.38511   0.53914
C          C       0.56588   0.86309   0.33732  -0.01548
C          C       0.59777   0.90583   0.36882  -0.07096
C          C       0.62160   0.96168   0.35331  -0.02059
C          C       0.61523   0.97443   0.30703  -0.12589
C          C       0.58650   0.93170   0.27479   0.06934
C          C       0.56111   0.87572   0.29101  -0.12192
C          C       0.43629   0.85008   0.99294   0.59305
C          C       0.68200   0.71751   0.08868   0.58353
C          C       0.50306   0.83888   0.03633  -0.02602
C          C       0.55893   0.78565   0.04251  -0.06252
C          C       0.62026   0.77447   0.08292  -0.01445
C          C       0.62733   0.81663   0.11671  -0.12133
C          C       0.57187   0.87058   0.11091   0.07120
C          C       0.50930   0.88085   0.07022  -0.11212
C          C       0.93995   0.08027   0.34817   0.56550
C          C       0.93078   0.01827   0.33412  -0.02588
C          C       0.92467   0.00404   0.28811  -0.08591
C          C       0.91648   0.94565   0.27390   0.07913
C          C       0.91547   0.90236   0.30741  -0.17602
C          C       0.92414   0.91565   0.35384   0.08523
C          C       0.93049   0.97453   0.36676  -0.09026
C          C       0.95806   0.80329   0.14634   0.53477
C          C       0.84113   0.00796   0.11436   0.53930
C          C       0.93420   0.86316   0.16258  -0.01537
C          C       0.90235   0.90586   0.13106  -0.06994
C          C       0.87832   0.96173   0.14651  -0.02035
C          C       0.88469   0.97454   0.19279  -0.12978
C          C       0.91339   0.93177   0.22506   0.06947
C          C       0.93891   0.87580   0.20888  -0.12193
C          C       0.06382   0.85004   0.50708   0.59207
C          C       0.81792   0.71755   0.41134   0.58362
C          C       0.99702   0.83890   0.46365  -0.02514
C          C       0.94115   0.78567   0.45752  -0.06344
C          C       0.87985   0.77446   0.41711  -0.01331
C          C       0.87287   0.81659   0.38330  -0.12199
C          C       0.92825   0.87054   0.38905   0.07166
C          C       0.99076   0.88089   0.42976  -0.11319
C          C       0.05995   0.41969   0.84850   0.56387
C          C       0.06904   0.48164   0.83424  -0.02497
C          C       0.07523   0.49587   0.78821  -0.08564
C          C       0.08360   0.55430   0.77400   0.07842
C          C       0.08458   0.59758   0.80747  -0.17449
C          C       0.07591   0.58428   0.85389   0.08568
C          C       0.06948   0.52542   0.86684  -0.09100
C          C       0.03973   0.69657   0.64621   0.53531
C          C       0.15884   0.49206   0.61450   0.53840
C          C       0.06454   0.63679   0.66261  -0.01616
C          C       0.09713   0.59415   0.63115  -0.07076
C          C       0.12182   0.53835   0.64662  -0.02021
C          C       0.11570   0.52554   0.69290  -0.12700
C          C       0.08674   0.56825   0.72515   0.07010
C          C       0.06051   0.62418   0.70895  -0.12139
C          C       0.93618   0.65007   0.00705   0.59227
C          C       0.18211   0.78246   0.91135   0.58461
C          C       0.00308   0.66112   0.96365  -0.02587
C          C       0.05899   0.71432   0.95751  -0.06292
C          C       0.12033   0.72552   0.91712  -0.01444
C          C       0.12724   0.68336   0.88333  -0.12136
C          C       0.07187   0.62939   0.88909   0.07147
C          C       0.00936   0.61908   0.92980  -0.11192
C          C       0.44002   0.41970   0.65154   0.56531
C          C       0.43090   0.48166   0.66579  -0.02595
C          C       0.42470   0.49587   0.71181  -0.08552
C          C       0.41637   0.55429   0.72603   0.07905
C          C       0.41532   0.59757   0.69254  -0.17324
C          C       0.42397   0.58431   0.64611   0.08572
C          C       0.43041   0.52545   0.63318  -0.08963
C          C       0.45891   0.69671   0.85362   0.53558
C          C       0.34130   0.49195   0.88546   0.53823
C          C       0.43445   0.63687   0.83737  -0.01628
C          C       0.40260   0.59415   0.86888  -0.07136
C          C       0.37858   0.53828   0.85343  -0.01966
C          C       0.38457   0.52550   0.80714  -0.12684
C          C       0.41332   0.56823   0.77487   0.06975
C          C       0.43896   0.62419   0.79106  -0.12093
C          C       0.56372   0.64986   0.49297   0.59241
C          C       0.31764   0.78244   0.58876   0.58552
C          C       0.49692   0.66114   0.53635  -0.02547
C          C       0.44095   0.71436   0.54252  -0.06222
C          C       0.37956   0.72553   0.58294  -0.01520
C          C       0.37253   0.68338   0.61673  -0.12091
C          C       0.42803   0.62945   0.61093   0.07115
C          C       0.49062   0.61916   0.57023  -0.11266
C          C       0.44009   0.91968   0.84854   0.56402
C          C       0.43099   0.98162   0.83427  -0.02558
C          C       0.42484   0.99586   0.78824  -0.08589
C          C       0.41657   0.05431   0.77408   0.07858
C          C       0.41545   0.09755   0.80756  -0.17260
C          C       0.42405   0.08425   0.85397   0.08573
C          C       0.43047   0.02538   0.86689  -0.09077
C          C       0.45911   0.19673   0.64639   0.53574
C          C       0.34119   0.99153   0.61503   0.53779
C          C       0.43442   0.13693   0.66272  -0.01696
C          C       0.40243   0.09417   0.63122  -0.07080
C          C       0.37831   0.03832   0.64673  -0.02043
C          C       0.38463   0.02564   0.69304  -0.12625
C          C       0.41349   0.06836   0.72527   0.06948
C          C       0.43908   0.12433   0.70905  -0.12079
C          C       0.56370   0.14999   0.00706   0.59205
C          C       0.31778   0.28244   0.91127   0.58578
C          C       0.49686   0.16112   0.96367  -0.02528
C          C       0.44097   0.21435   0.95748  -0.06273
C          C       0.37961   0.22551   0.91707  -0.01458
C          C       0.37259   0.18333   0.88330  -0.12136
C          C       0.42808   0.12939   0.88912   0.07125
C          C       0.49064   0.11913   0.92981  -0.11187
C          C       0.06015   0.91973   0.65192   0.56568
C          C       0.06927   0.98176   0.66591  -0.02595
C          C       0.07538   0.99604   0.71192  -0.08579
C          C       0.08370   0.05444   0.72611   0.07994
C          C       0.08462   0.09769   0.69260  -0.17342
C          C       0.07592   0.08436   0.64618   0.08608
C          C       0.06957   0.02549   0.63325  -0.09081
C          C       0.03921   0.19691   0.85354   0.53432
C          C       0.15880   0.99216   0.88563   0.53941
C          C       0.06451   0.13698   0.83749  -0.01588
C          C       0.09706   0.09433   0.86897  -0.07077
C          C       0.12169   0.03848   0.85351  -0.02066
C          C       0.11564   0.02564   0.80723  -0.12741
C          C       0.08684   0.06838   0.77496   0.06932
C          C       0.06065   0.12429   0.79115  -0.12135
C          C       0.93619   0.15003   0.49294   0.59169
C          C       0.18214   0.28246   0.58867   0.58393
C          C       0.00306   0.16110   0.53637  -0.02529
C          C       0.05892   0.21433   0.54251  -0.06290
C          C       0.12023   0.22555   0.58291  -0.01408
C          C       0.12718   0.18341   0.61671  -0.12103
C          C       0.07178   0.12945   0.61096   0.07067
C          C       0.00933   0.11910   0.57025  -0.11262
C          C       0.94015   0.58027   0.15150   0.56474
C          C       0.93098   0.51833   0.16574  -0.02501
C          C       0.92480   0.50411   0.21178  -0.08579
C          C       0.91652   0.44570   0.22601   0.07893
C          C       0.91551   0.40242   0.19254  -0.17583
C          C       0.92413   0.41570   0.14611   0.08582
C          C       0.93054   0.47456   0.13314  -0.09116
C          C       0.95927   0.30334   0.35368   0.53618
C          C       0.84101   0.50793   0.38558   0.53942
C          C       0.93447   0.36314   0.33737  -0.01603
C          C       0.90243   0.40585   0.36886  -0.07047
C          C       0.87833   0.46172   0.35341  -0.02025
C          C       0.88474   0.47456   0.30714  -0.12625
C          C       0.91339   0.43180   0.27487   0.06930
C          C       0.93893   0.37581   0.29106  -0.12138
C          C       0.06387   0.34993   0.99297   0.59123
C          C       0.81793   0.21751   0.08865   0.58425
C          C       0.99697   0.33886   0.03636  -0.02516
C          C       0.94105   0.28565   0.04249  -0.06293
C          C       0.87974   0.27445   0.08288  -0.01413
C          C       0.87284   0.31660   0.11669  -0.12151
C          C       0.92820   0.37058   0.11092   0.07127
C          C       0.99069   0.38088   0.07021  -0.11238
C          C       0.55990   0.58029   0.34847   0.56514
C          C       0.56905   0.51836   0.33420  -0.02578
C          C       0.57521   0.50414   0.28816  -0.08592
C          C       0.58354   0.44571   0.27398   0.07876
C          C       0.58467   0.40243   0.30746  -0.17298
C          C       0.57605   0.41571   0.35389   0.08590
C          C       0.56963   0.47458   0.36681  -0.09004
C          C       0.54181   0.30319   0.14642   0.53437
C          C       0.65873   0.50813   0.11469   0.53882
C          C       0.56579   0.36307   0.16263  -0.01468
C          C       0.59755   0.40580   0.13110  -0.07116
C          C       0.62144   0.46165   0.14658  -0.02028
C          C       0.61529   0.47443   0.19287  -0.12931
C          C       0.58656   0.43171   0.22514   0.06931
C          C       0.56105   0.37576   0.20894  -0.12275
C          C       0.43633   0.35014   0.50708   0.59250
C          C       0.68213   0.21752   0.41127   0.58481
C          C       0.50310   0.33891   0.46367  -0.02573
C          C       0.55900   0.28567   0.45749  -0.06204
C          C       0.62034   0.27447   0.41707  -0.01437
C          C       0.62740   0.31662   0.38328  -0.12153
C          C       0.57198   0.37058   0.38908   0.07126
C          C       0.50939   0.38087   0.42977  -0.11244
O          O       0.57112   0.09150   0.10846  -0.61266
O          O       0.53987   0.11948   0.17993  -0.49109
O          O       0.53249   0.76253   0.32463  -0.50582
O          O       0.53558   0.79370   0.39624  -0.50254
O          O       0.65603   0.06026   0.37043  -0.51437
O          O       0.69621   0.99595   0.42484  -0.52579
O          O       0.45260   0.81454   0.96095  -0.55409
O          O       0.36886   0.89439   0.99320  -0.53579
O          O       0.74931   0.71132   0.12260  -0.57406
O          O       0.66010   0.67936   0.05842  -0.53231
O          O       0.92894   0.09164   0.39120  -0.61349
O          O       0.95963   0.11922   0.31951  -0.49184
O          O       0.96603   0.76255   0.17541  -0.50517
O          O       0.96434   0.79364   0.10378  -0.50209
O          O       0.84422   0.06022   0.12851  -0.51535
O          O       0.80342   0.99490   0.07488  -0.52496
O          O       0.04745   0.81444   0.53901  -0.55455
O          O       0.13108   0.89438   0.50690  -0.53543
O          O       0.75074   0.71133   0.37739  -0.57445
O          O       0.83967   0.67948   0.44168  -0.53218
O          O       0.07112   0.40847   0.89152  -0.61282
O          O       0.04008   0.38052   0.82003  -0.49137
O          O       0.02877   0.73727   0.67522  -0.50741
O          O       0.03578   0.70621   0.60361  -0.50252
O          O       0.15557   0.43985   0.62876  -0.51420
O          O       0.19649   0.50503   0.57497  -0.52556
O          O       0.95240   0.68569   0.03899  -0.55416
O          O       0.86891   0.60573   0.00683  -0.53528
O          O       0.24932   0.78868   0.87739  -0.57523
O          O       0.16030   0.82054   0.94167  -0.53250
O          O       0.42885   0.40850   0.60851  -0.61394
O          O       0.45997   0.38052   0.67999  -0.49142
O          O       0.46906   0.73739   0.82458  -0.50680
O          O       0.46430   0.70637   0.89620  -0.50220
O          O       0.34429   0.43979   0.87107  -0.51408
O          O       0.30367   0.50484   0.92501  -0.52532
O          O       0.54722   0.68530   0.46092  -0.55498
O          O       0.63134   0.60563   0.49328  -0.53472
O          O       0.25030   0.78863   0.62266  -0.57525
O          O       0.33980   0.82068   0.55858  -0.53248
O          O       0.42884   0.90849   0.89156  -0.61245
O          O       0.46006   0.88047   0.82010  -0.49123
O          O       0.46962   0.23744   0.67540  -0.50641
O          O       0.46427   0.20634   0.60381  -0.50284
O          O       0.34394   0.93963   0.62978  -0.51208
O          O       0.30387   0.00345   0.57519  -0.52544
O          O       0.54747   0.18553   0.03902  -0.55348
O          O       0.63106   0.10563   0.00680  -0.53526
O          O       0.25041   0.28866   0.87737  -0.57620
O          O       0.33989   0.32060   0.94150  -0.53251
O          O       0.07111   0.90831   0.60888  -0.61405
O          O       0.04052   0.88082   0.68062  -0.49152
O          O       0.02703   0.23721   0.82433  -0.50606
O          O       0.03609   0.20725   0.89609  -0.50211
O          O       0.15554   0.93990   0.87145  -0.51502
O          O       0.19652   0.00512   0.92513  -0.52463
O          O       0.95250   0.18563   0.46100  -0.55407
O          O       0.86891   0.10568   0.49315  -0.53553
O          O       0.24935   0.28868   0.62261  -0.57481
O          O       0.16033   0.32052   0.55833  -0.53240
O          O       0.92879   0.59153   0.10849  -0.61342
O          O       0.96028   0.61941   0.17997  -0.49133
O          O       0.97015   0.26267   0.32464  -0.50742
O          O       0.96403   0.29367   0.39625  -0.50214
O          O       0.84386   0.56017   0.37138  -0.51499
O          O       0.80350   0.49487   0.42510  -0.52514
O          O       0.04773   0.31433   0.96102  -0.55298
O          O       0.13108   0.39431   0.99320  -0.53513
O          O       0.75079   0.21127   0.12262  -0.57450
O          O       0.83961   0.17948   0.05827  -0.53264
O          O       0.57104   0.59147   0.39150  -0.61350
O          O       0.53994   0.61951   0.32004  -0.49180
O          O       0.53349   0.26250   0.17553  -0.50535
O          O       0.53551   0.29344   0.10388  -0.50206
O          O       0.65587   0.56018   0.12928  -0.51481
O          O       0.69628   0.49549   0.07506  -0.52635
O          O       0.45299   0.31468   0.53911  -0.55441
O          O       0.36860   0.39431   0.50679  -0.53502
O          O       0.74942   0.21131   0.37735  -0.57527
O          O       0.66017   0.17936   0.44153  -0.53250

