data_crystal

_audit_creation_method 'AiiDA-DDEC plugin'

_cell_length_a        31.44329
_cell_length_b        31.43924
_cell_length_c        46.36514

_cell_angle_alpha     109.78316
_cell_angle_beta     109.77191
_cell_angle_gamma     90.06110

_symmetry_space_group_name_Hall 'P 1'
_symmetry_space_group_name_H-M  'P 1'

loop_
_symmetry_equiv_pos_as_xyz
 'x,y,z'

loop_
_atom_site_label
_atom_site_type_symbol
_atom_site_fract_x
_atom_site_fract_y
_atom_site_fract_z
_atom_site_charge
Cu         Cu      0.91797   0.41895   0.78216   0.91597
Cu         Cu      0.86431   0.36295   0.78204   0.91514
Cu         Cu      0.16883   0.11449   0.28185   0.91685
Cu         Cu      0.11285   0.16815   0.28177   0.91675
Cu         Cu      0.83186   0.88714   0.71823   0.91673
Cu         Cu      0.88550   0.83115   0.71814   0.91684
Cu         Cu      0.58104   0.08194   0.21784   0.90534
Cu         Cu      0.63711   0.13575   0.21796   0.91230
H          H       0.88010   0.60806   0.88803   0.10879
H          H       0.90323   0.54519   0.84944   0.12325
H          H       0.81047   0.44822   0.85265   0.12538
H          H       0.78682   0.51089   0.89162   0.11314
H          H       0.84967   0.76184   0.83276   0.10971
H          H       0.86688   0.77566   0.78813   0.12460
H          H       0.79097   0.88965   0.79720   0.12628
H          H       0.77386   0.87714   0.84255   0.11166
H          H       0.80553   0.64410   0.97479   0.13989
H          H       0.81593   0.70530   0.89473   0.11297
H          H       0.78055   0.84134   0.92625   0.11659
H          H       0.76954   0.82953   0.97303   0.11469
H          H       0.84257   0.65664   0.90941   0.10265
H          H       0.79373   0.58796   0.92524   0.11632
H          H       0.82186   0.74933   0.86596   0.11012
H          H       0.78370   0.84110   0.88020   0.10802
H          H       0.00767   0.27976   0.88802   0.10855
H          H       0.94612   0.30459   0.84967   0.12393
H          H       0.04249   0.40451   0.85303   0.12548
H          H       0.10498   0.38022   0.89175   0.11352
H          H       0.98256   0.07043   0.83240   0.10920
H          H       0.92071   0.01206   0.78762   0.12512
H          H       0.00547   0.90702   0.79669   0.12693
H          H       0.06791   0.96479   0.84213   0.11195
H          H       0.16995   0.32962   0.97403   0.13920
H          H       0.07814   0.18901   0.89439   0.11179
H          H       0.14445   0.08387   0.92545   0.11481
H          H       0.20316   0.14212   0.97186   0.11616
H          H       0.06681   0.25206   0.90904   0.10240
H          H       0.13149   0.33653   0.92482   0.11618
H          H       0.04300   0.11596   0.86557   0.10933
H          H       0.09579   0.03861   0.87978   0.10854
H          H       0.35795   0.25773   0.38787   0.10819
H          H       0.29488   0.19616   0.34924   0.12355
H          H       0.19833   0.29232   0.35274   0.12529
H          H       0.26123   0.35482   0.39170   0.11258
H          H       0.51186   0.23260   0.33245   0.10906
H          H       0.52558   0.17074   0.28788   0.12497
H          H       0.63974   0.25576   0.29693   0.12650
H          H       0.62723   0.31813   0.34219   0.11152
H          H       0.39401   0.41986   0.47401   0.13923
H          H       0.45550   0.32843   0.39452   0.11231
H          H       0.59168   0.39509   0.42596   0.11682
H          H       0.57980   0.45330   0.47250   0.11569
H          H       0.40688   0.31659   0.40936   0.10260
H          H       0.33829   0.38145   0.42495   0.11601
H          H       0.49949   0.29358   0.36578   0.10943
H          H       0.59122   0.34601   0.37987   0.10828
H          H       0.03017   0.13032   0.38805   0.10800
H          H       0.05483   0.15350   0.34961   0.12353
H          H       0.15469   0.06054   0.35290   0.12556
H          H       0.13047   0.03675   0.39164   0.11317
H          H       0.82060   0.10007   0.33235   0.11161
H          H       0.76229   0.11711   0.28760   0.12510
H          H       0.65720   0.04129   0.29667   0.12715
H          H       0.71485   0.02433   0.34212   0.11152
H          H       0.07973   0.05465   0.47431   0.13977
H          H       0.93909   0.06615   0.39436   0.11309
H          H       0.83396   0.03079   0.42553   0.11805
H          H       0.89229   0.01944   0.47229   0.11558
H          H       0.00236   0.09218   0.40898   0.10196
H          H       0.08683   0.04362   0.42510   0.11606
H          H       0.86618   0.07233   0.36551   0.10951
H          H       0.78859   0.03404   0.37973   0.10893
H          H       0.86968   0.96983   0.61195   0.10795
H          H       0.84649   0.94516   0.65039   0.12348
H          H       0.93946   0.84530   0.64711   0.12570
H          H       0.96325   0.86952   0.60836   0.11310
H          H       0.89994   0.17937   0.66764   0.10956
H          H       0.88290   0.23770   0.71240   0.12553
H          H       0.95871   0.34281   0.70334   0.12664
H          H       0.97568   0.28515   0.65788   0.11108
H          H       0.94535   0.92024   0.52568   0.13966
H          H       0.93384   0.06091   0.60564   0.11344
H          H       0.96921   0.16606   0.57448   0.11778
H          H       0.98057   0.10772   0.52771   0.11518
H          H       0.90781   0.99764   0.59102   0.10199
H          H       0.95639   0.91317   0.57490   0.11606
H          H       0.92766   0.13381   0.63449   0.10998
H          H       0.96596   0.21141   0.62027   0.10849
H          H       0.74225   0.64203   0.61211   0.10845
H          H       0.80381   0.70510   0.65075   0.12362
H          H       0.70770   0.80170   0.64728   0.12532
H          H       0.64520   0.73879   0.60832   0.11256
H          H       0.76734   0.48811   0.66752   0.10869
H          H       0.82917   0.47442   0.71209   0.12496
H          H       0.74415   0.36024   0.70304   0.12670
H          H       0.68181   0.37274   0.65778   0.11169
H          H       0.58017   0.60607   0.52601   0.13929
H          H       0.67152   0.54452   0.60545   0.11220
H          H       0.60484   0.40834   0.57399   0.11713
H          H       0.54667   0.42022   0.52746   0.11562
H          H       0.68340   0.59313   0.59061   0.10244
H          H       0.61857   0.66174   0.57505   0.11610
H          H       0.70636   0.50051   0.63418   0.10930
H          H       0.65394   0.40876   0.62009   0.10842
H          H       0.39201   0.11982   0.11203   0.10885
H          H       0.45489   0.09670   0.15059   0.12354
H          H       0.55179   0.18952   0.14736   0.12523
H          H       0.48911   0.21314   0.10841   0.11300
H          H       0.23817   0.15034   0.16725   0.10958
H          H       0.22433   0.13313   0.21188   0.12439
H          H       0.11035   0.20905   0.20280   0.12643
H          H       0.12290   0.22615   0.15746   0.11190
H          H       0.35631   0.19560   0.02569   0.13948
H          H       0.29471   0.18404   0.10528   0.11262
H          H       0.15863   0.21923   0.07369   0.11687
H          H       0.17042   0.23015   0.02688   0.11569
H          H       0.34328   0.15719   0.09045   0.10280
H          H       0.41205   0.20632   0.07488   0.11589
H          H       0.25071   0.17816   0.13408   0.10987
H          H       0.15891   0.21622   0.11977   0.10848
H          H       0.72019   0.99232   0.11198   0.10849
H          H       0.69537   0.05389   0.15032   0.12374
H          H       0.59546   0.95753   0.14699   0.12547
H          H       0.61975   0.89501   0.10826   0.11351
H          H       0.92957   0.01743   0.16760   0.10964
H          H       0.98792   0.07929   0.21238   0.12523
H          H       0.09296   0.99453   0.20330   0.12674
H          H       0.03520   0.93208   0.15784   0.11189
H          H       0.67031   0.83073   0.02556   0.13945
H          H       0.81103   0.92190   0.10567   0.11207
H          H       0.91608   0.85536   0.07462   0.11677
H          H       0.85780   0.79666   0.02822   0.11299
H          H       0.74800   0.93316   0.09116   0.10246
H          H       0.66340   0.86851   0.07511   0.11646
H          H       0.88405   0.95701   0.13442   0.10951
H          H       0.96138   0.90414   0.12024   0.10832
C          C       0.83111   0.56434   0.89252   0.11283
C          C       0.86432   0.57328   0.88031  -0.14216
C          C       0.87767   0.53820   0.85878  -0.09006
C          C       0.85825   0.49281   0.84864  -0.03614
C          C       0.82540   0.48335   0.86067  -0.08660
C          C       0.81235   0.51856   0.88242  -0.14065
C          C       0.87210   0.45535   0.82519   0.58108
C          C       0.81009   0.81843   0.84113   0.10930
C          C       0.83632   0.78978   0.82514  -0.13668
C          C       0.84616   0.79724   0.80007  -0.09041
C          C       0.82973   0.83329   0.78979  -0.02946
C          C       0.80341   0.86182   0.80524  -0.08898
C          C       0.79406   0.85463   0.83058  -0.14007
C          C       0.84028   0.84160   0.76301   0.57779
C          C       0.78002   0.75436   0.98849  -0.01765
C          C       0.78579   0.71074   0.99331   0.32605
C          C       0.79962   0.67543   0.96978  -0.23799
C          C       0.80726   0.68109   0.94377   0.08071
C          C       0.80032   0.72442   0.93879   0.03751
C          C       0.78658   0.76052   0.96154   0.02377
C          C       0.80620   0.73223   0.91238  -0.18143
C          C       0.79954   0.77362   0.90689   0.12394
C          C       0.78586   0.80884   0.92950  -0.14247
C          C       0.77978   0.80239   0.95579  -0.09941
C          C       0.82311   0.64537   0.92154  -0.13060
C          C       0.81513   0.59997   0.91460  -0.12995
C          C       0.80786   0.77797   0.87915  -0.13740
C          C       0.79976   0.81338   0.86817  -0.12299
C          C       0.06135   0.32775   0.89245   0.11294
C          C       0.01589   0.30681   0.88034  -0.14048
C          C       0.98111   0.32061   0.85893  -0.09096
C          C       0.99057   0.35584   0.84883  -0.03465
C          C       0.03547   0.37727   0.86089  -0.08885
C          C       0.07018   0.36355   0.88251  -0.14039
C          C       0.95340   0.36986   0.82531   0.58123
C          C       0.03033   0.02211   0.84071   0.10787
C          C       0.98819   0.03485   0.82470  -0.13682
C          C       0.95331   0.00239   0.79961  -0.09118
C          C       0.95941   0.95607   0.78939  -0.02975
C          C       0.00114   0.94291   0.80479  -0.08894
C          C       0.03581   0.97538   0.83013  -0.13911
C          C       0.92193   0.92108   0.76285   0.57891
C          C       0.20877   0.23267   0.98734  -0.01791
C          C       0.20819   0.28110   0.99216   0.32730
C          C       0.17066   0.29326   0.96899  -0.23819
C          C       0.13656   0.26181   0.94321   0.08098
C          C       0.13811   0.21346   0.93822   0.03659
C          C       0.17462   0.19982   0.96075   0.02334
C          C       0.10546   0.17947   0.91193  -0.18004
C          C       0.10636   0.13258   0.90641   0.12279
C          C       0.14264   0.11969   0.92883  -0.13993
C          C       0.17541   0.15219   0.95493  -0.10049
C          C       0.09841   0.27545   0.92117  -0.12983
C          C       0.09942   0.31397   0.91430  -0.13056
C          C       0.07028   0.10053   0.87872  -0.13618
C          C       0.06760   0.05421   0.86775  -0.12282
C          C       0.31445   0.31130   0.39245   0.11189
C          C       0.32323   0.26586   0.38020  -0.14042
C          C       0.28805   0.23108   0.35867  -0.08986
C          C       0.24273   0.24050   0.34860  -0.03616
C          C       0.23342   0.28536   0.36073  -0.08679
C          C       0.26874   0.32007   0.38245  -0.14026
C          C       0.20520   0.20334   0.32501   0.58131
C          C       0.56848   0.28051   0.34082   0.10941
C          C       0.53982   0.23827   0.32481  -0.13625
C          C       0.54727   0.20336   0.29976  -0.09134
C          C       0.58334   0.20950   0.28947  -0.02963
C          C       0.61190   0.25130   0.30496  -0.08777
C          C       0.60468   0.28597   0.33026  -0.14078
C          C       0.59169   0.17215   0.26270   0.58019
C          C       0.50450   0.45866   0.48787  -0.01791
C          C       0.46069   0.45803   0.49249   0.32741
C          C       0.42547   0.42049   0.46912  -0.23789
C          C       0.43129   0.38641   0.44342   0.08009
C          C       0.47476   0.38810   0.43857   0.03779
C          C       0.51089   0.42461   0.46125   0.02241
C          C       0.48254   0.35571   0.41220  -0.18061
C          C       0.52394   0.35680   0.40671   0.12251
C          C       0.55921   0.39307   0.42928  -0.14234
C          C       0.55274   0.42561   0.45547  -0.09995
C          C       0.39556   0.34823   0.42134  -0.13043
C          C       0.35020   0.34932   0.41441  -0.12867
C          C       0.52818   0.32075   0.37892  -0.13566
C          C       0.56350   0.31788   0.36787  -0.12409
C          C       0.07805   0.08109   0.39246   0.11345
C          C       0.05717   0.11444   0.38033  -0.14098
C          C       0.07093   0.12780   0.35886  -0.09142
C          C       0.10610   0.10826   0.34870  -0.03447
C          C       0.12750   0.07545   0.36080  -0.08693
C          C       0.11379   0.06234   0.38246  -0.14154
C          C       0.11992   0.12186   0.32502   0.58000
C          C       0.77228   0.06044   0.34066   0.10962
C          C       0.78505   0.08662   0.32465  -0.13756
C          C       0.75262   0.09640   0.29956  -0.09257
C          C       0.70631   0.08004   0.28932  -0.02920
C          C       0.69310   0.05369   0.30474  -0.08973
C          C       0.72553   0.04439   0.33009  -0.13848
C          C       0.67134   0.09095   0.26275   0.57987
C          C       0.98280   0.02991   0.48791  -0.01907
C          C       0.03124   0.03524   0.49276   0.32696
C          C       0.04338   0.04902   0.46933  -0.23809
C          C       0.01196   0.05701   0.44339   0.07991
C          C       0.96358   0.05051   0.43839   0.03850
C          C       0.94994   0.03691   0.46109   0.02381
C          C       0.92956   0.05651   0.41197  -0.18259
C          C       0.88265   0.04999   0.40644   0.12404
C          C       0.86976   0.03624   0.42894  -0.14371
C          C       0.90231   0.03003   0.45522  -0.09947
C          C       0.02571   0.07285   0.42123  -0.13054
C          C       0.06427   0.06499   0.41441  -0.12873
C          C       0.85066   0.05831   0.37868  -0.13646
C          C       0.80431   0.05017   0.36772  -0.12544
C          C       0.91891   0.92194   0.60754   0.11311
C          C       0.88556   0.94282   0.61967  -0.14103
C          C       0.87219   0.92907   0.64114  -0.09112
C          C       0.89173   0.89389   0.65130  -0.03489
C          C       0.92454   0.87249   0.63920  -0.08707
C          C       0.93766   0.88620   0.61755  -0.14106
C          C       0.87813   0.88008   0.67498   0.58032
C          C       0.93957   0.22771   0.65933   0.10989
C          C       0.91338   0.21493   0.67534  -0.13549
C          C       0.90360   0.24736   0.70043  -0.09224
C          C       0.91996   0.29369   0.71066  -0.02983
C          C       0.94631   0.30690   0.69525  -0.08947
C          C       0.95562   0.27448   0.66990  -0.13846
C          C       0.90904   0.32864   0.73721   0.57953
C          C       0.97008   0.01719   0.51208  -0.01847
C          C       0.96476   0.96875   0.50723   0.32668
C          C       0.95098   0.95660   0.53067  -0.23777
C          C       0.94299   0.98803   0.55661   0.07994
C          C       0.94949   0.03641   0.56161   0.03894
C          C       0.96310   0.05006   0.53891   0.02357
C          C       0.94348   0.07044   0.58803  -0.18240
C          C       0.95001   0.11735   0.59356   0.12389
C          C       0.96377   0.13026   0.57106  -0.14419
C          C       0.96998   0.09770   0.54478  -0.09938
C          C       0.92715   0.97428   0.57877  -0.13034
C          C       0.93501   0.93573   0.58559  -0.12887
C          C       0.94168   0.14934   0.62131  -0.13595
C          C       0.94982   0.19569   0.63228  -0.12563
C          C       0.68870   0.68556   0.60755   0.11207
C          C       0.73413   0.67677   0.61979  -0.14073
C          C       0.76890   0.71195   0.64133  -0.08956
C          C       0.75950   0.75727   0.65140  -0.03648
C          C       0.71465   0.76660   0.63929  -0.08687
C          C       0.67994   0.73128   0.61756  -0.14025
C          C       0.79666   0.79480   0.67499   0.58120
C          C       0.71943   0.43151   0.65915   0.10936
C          C       0.76166   0.46016   0.67515  -0.13620
C          C       0.79656   0.45271   0.70021  -0.09176
C          C       0.79041   0.41665   0.71050  -0.02973
C          C       0.74862   0.38809   0.69501  -0.08765
C          C       0.71396   0.39529   0.66971  -0.14105
C          C       0.82775   0.40831   0.73726   0.58049
C          C       0.54137   0.49553   0.51208  -0.01801
C          C       0.54197   0.53937   0.50750   0.32771
C          C       0.57952   0.57459   0.53087  -0.23782
C          C       0.61359   0.56874   0.55656   0.07931
C          C       0.61188   0.52525   0.56140   0.03846
C          C       0.57538   0.48913   0.53871   0.02198
C          C       0.64425   0.51747   0.58777  -0.18089
C          C       0.64316   0.47607   0.59325   0.12266
C          C       0.60688   0.44080   0.57068  -0.14236
C          C       0.57436   0.44727   0.54448  -0.09965
C          C       0.65177   0.60445   0.57864  -0.12990
C          C       0.65069   0.64983   0.58559  -0.12909
C          C       0.67919   0.47181   0.62104  -0.13594
C          C       0.68207   0.43649   0.63209  -0.12391
C          C       0.43567   0.16883   0.10752   0.11283
C          C       0.42677   0.13561   0.11973  -0.14113
C          C       0.46186   0.12226   0.14124  -0.09044
C          C       0.50724   0.14170   0.15138  -0.03535
C          C       0.51667   0.17455   0.13935  -0.08637
C          C       0.48145   0.18760   0.11760  -0.14141
C          C       0.54471   0.12786   0.17486   0.58042
C          C       0.18160   0.18992   0.15888   0.10997
C          C       0.21024   0.16370   0.17488  -0.13730
C          C       0.20276   0.15386   0.19994  -0.09019
C          C       0.16670   0.17027   0.21021  -0.02966
C          C       0.13819   0.19660   0.19476  -0.08864
C          C       0.14540   0.20596   0.16943  -0.14042
C          C       0.15838   0.15972   0.23699   0.57763
C          C       0.24565   0.22004   0.01155  -0.01881
C          C       0.28950   0.21501   0.00701   0.32810
C          C       0.32480   0.20108   0.03049  -0.23814
C          C       0.31895   0.19279   0.05624   0.08073
C          C       0.27547   0.19931   0.06107   0.03680
C          C       0.23931   0.21287   0.03827   0.02420
C          C       0.26770   0.19353   0.08753  -0.18109
C          C       0.22630   0.20016   0.09300   0.12385
C          C       0.19105   0.21373   0.07036  -0.14155
C          C       0.19748   0.21973   0.04404  -0.10161
C          C       0.35461   0.17680   0.07842  -0.13064
C          C       0.40003   0.18483   0.08546  -0.12935
C          C       0.22203   0.19205   0.12084  -0.13675
C          C       0.18663   0.20019   0.13182  -0.12445
C          C       0.67222   0.93864   0.10757   0.11294
C          C       0.69315   0.98410   0.11966  -0.14037
C          C       0.67935   0.01890   0.14107  -0.09193
C          C       0.64413   0.00945   0.15118  -0.03254
C          C       0.62271   0.96455   0.13913  -0.08830
C          C       0.63642   0.92982   0.11751  -0.14100
C          C       0.63015   0.04666   0.17473   0.58005
C          C       0.97788   0.96966   0.15927   0.10802
C          C       0.96514   0.01181   0.17528  -0.13643
C          C       0.99759   0.04669   0.20038  -0.09127
C          C       0.04390   0.04059   0.21061  -0.03007
C          C       0.05707   0.99885   0.19519  -0.08840
C          C       0.02462   0.96419   0.16984  -0.13962
C          C       0.07888   0.07808   0.23715   0.57932
C          C       0.76728   0.79132   0.01265  -0.01844
C          C       0.71882   0.79220   0.00754   0.32492
C          C       0.70667   0.82975   0.03072  -0.23747
C          C       0.73817   0.86351   0.05678   0.08039
C          C       0.78653   0.86174   0.06195   0.03814
C          C       0.80015   0.82512   0.03947   0.02288
C          C       0.82053   0.89444   0.08820  -0.18046
C          C       0.86741   0.89348   0.09370   0.12147
C          C       0.88029   0.85712   0.07131  -0.14058
C          C       0.84778   0.82432   0.04525  -0.09786
C          C       0.72456   0.90160   0.07890  -0.13043
C          C       0.68599   0.90057   0.08569  -0.13031
C          C       0.89946   0.92966   0.12131  -0.13561
C          C       0.94579   0.93236   0.13226  -0.12286
O          O       0.90455   0.46614   0.81700  -0.54114
O          O       0.85047   0.41528   0.81471  -0.54879
O          O       0.82081   0.87275   0.75333  -0.54803
O          O       0.86789   0.81740   0.75179  -0.53969
O          O       0.78054   0.70460   0.01738  -0.39361
O          O       0.91279   0.35040   0.81665  -0.54355
O          O       0.96460   0.39994   0.81525  -0.54852
O          O       0.93150   0.88019   0.75325  -0.54693
O          O       0.88312   0.93420   0.75178  -0.54070
O          O       0.23774   0.31092   0.01632  -0.39398
O          O       0.21613   0.16282   0.31626  -0.54274
O          O       0.16503   0.21442   0.31499  -0.54883
O          O       0.62368   0.18162   0.25366  -0.54686
O          O       0.56671   0.13363   0.25096  -0.53938
O          O       0.45455   0.48742   0.51651  -0.39395
O          O       0.10025   0.15363   0.31625  -0.54417
O          O       0.14994   0.10068   0.31489  -0.54706
O          O       0.63037   0.07212   0.25350  -0.54785
O          O       0.68461   0.11823   0.25138  -0.53797
O          O       0.06101   0.03003   0.51701  -0.39405
O          O       0.84636   0.89976   0.68375  -0.54434
O          O       0.89930   0.85005   0.68511  -0.54709
O          O       0.92779   0.36966   0.74648  -0.55047
O          O       0.88179   0.31540   0.74863  -0.53771
O          O       0.96999   0.93897   0.48298  -0.39373
O          O       0.83716   0.78386   0.68374  -0.54247
O          O       0.78558   0.83498   0.68501  -0.54883
O          O       0.81834   0.37632   0.74634  -0.54736
O          O       0.86630   0.43327   0.74905  -0.54215
O          O       0.51255   0.54552   0.48350  -0.39421
O          O       0.53386   0.09542   0.18303  -0.53803
O          O       0.58474   0.14955   0.18532  -0.54856
O          O       0.12723   0.17920   0.24667  -0.54767
O          O       0.18258   0.13211   0.24821  -0.53997
O          O       0.29556   0.22049   0.98298  -0.39428
O          O       0.64962   0.08724   0.18336  -0.54287
O          O       0.60012   0.03539   0.18479  -0.54551
O          O       0.11976   0.06850   0.24674  -0.54733
O          O       0.06576   0.11689   0.24822  -0.54054
O          O       0.68906   0.76252   0.98339  -0.39335

