data_crystal

_audit_creation_method 'AiiDA-DDEC plugin'

_cell_length_a        15.81410
_cell_length_b        17.10315
_cell_length_c        18.45765

_cell_angle_alpha     90.01717
_cell_angle_beta     89.99548
_cell_angle_gamma     89.98928

_symmetry_space_group_name_Hall 'P 1'
_symmetry_space_group_name_H-M  'P 1'

loop_
_symmetry_equiv_pos_as_xyz
 'x,y,z'

loop_
_atom_site_label
_atom_site_type_symbol
_atom_site_fract_x
_atom_site_fract_y
_atom_site_fract_z
_atom_site_charge
Zn         Zn      0.43119   0.82743   0.64553   0.91897
Zn         Zn      0.47601   0.67286   0.59458   0.91161
Zn         Zn      0.06884   0.17258   0.14635   0.92067
Zn         Zn      0.02410   0.32711   0.09408   0.91406
Zn         Zn      0.56890   0.32748   0.85342   0.92163
Zn         Zn      0.52420   0.17295   0.90593   0.91372
Zn         Zn      0.93134   0.67254   0.35444   0.91975
Zn         Zn      0.97596   0.82718   0.40537   0.91163
Zn         Zn      0.56881   0.17257   0.35447   0.91906
Zn         Zn      0.52400   0.32714   0.40542   0.91148
Zn         Zn      0.93116   0.82742   0.85366   0.92055
Zn         Zn      0.97590   0.67289   0.90592   0.91406
Zn         Zn      0.43110   0.67252   0.14658   0.92156
Zn         Zn      0.47581   0.82705   0.09407   0.91384
Zn         Zn      0.06866   0.32746   0.64556   0.91954
Zn         Zn      0.02404   0.17282   0.59463   0.91170
H          H       0.46380   0.79610   0.36735   0.10866
H          H       0.53554   0.71700   0.36435   0.11568
H          H       0.59792   0.93582   0.26002   0.11106
H          H       0.50079   0.92589   0.30554   0.10613
H          H       0.73542   0.94219   0.33051   0.10738
H          H       0.73358   0.93698   0.42602   0.11323
H          H       0.67412   0.72317   0.43474   0.12061
H          H       0.69794   0.80668   0.48828   0.11052
H          H       0.59571   0.92152   0.49305   0.11554
H          H       0.49875   0.91738   0.44603   0.11600
H          H       0.70147   0.81993   0.25401   0.10931
H          H       0.67613   0.73118   0.29880   0.11609
H          H       0.03637   0.20380   0.86791   0.10883
H          H       0.96439   0.28274   0.86508   0.11674
H          H       0.90225   0.06447   0.75992   0.11167
H          H      -0.00064   0.07392   0.80555   0.10605
H          H       0.76447   0.05765   0.83040   0.10700
H          H       0.76644   0.06298   0.92588   0.11273
H          H       0.82619   0.27657   0.93486   0.11763
H          H       0.80174   0.19306   0.98823   0.10995
H          H       0.90421   0.07775   0.99304   0.11675
H          H       0.00121   0.08207   0.94603   0.11523
H          H       0.79927   0.17987   0.75399   0.11093
H          H       0.82423   0.26873   0.79888   0.11592
H          H       0.53637   0.29617   0.13210   0.10878
H          H       0.46442   0.21722   0.13493   0.11674
H          H       0.40224   0.43553   0.24010   0.11179
H          H       0.49937   0.42600   0.19445   0.10627
H          H       0.26449   0.44239   0.16964   0.10718
H          H       0.26643   0.43707   0.07414   0.11273
H          H       0.32614   0.22345   0.06517   0.11781
H          H       0.30173   0.30692   0.01178   0.10999
H          H       0.40417   0.42221   0.00697   0.11655
H          H       0.50120   0.41788   0.05394   0.11521
H          H       0.29924   0.32010   0.24604   0.11106
H          H       0.32421   0.23127   0.20111   0.11594
H          H       0.96371   0.70393   0.63272   0.10910
H          H       0.03548   0.78298   0.63569   0.11562
H          H       0.09792   0.56414   0.73996   0.11109
H          H       0.00077   0.57405   0.69447   0.10621
H          H       0.23542   0.55779   0.66944   0.10726
H          H       0.23357   0.56299   0.57393   0.11300
H          H       0.17394   0.77679   0.56526   0.12055
H          H       0.19780   0.69328   0.51168   0.11073
H          H       0.09565   0.57847   0.50693   0.11636
H          H      -0.00130   0.58257   0.55399   0.11590
H          H       0.20144   0.67999   0.74593   0.10932
H          H       0.17603   0.76876   0.70117   0.11598
H          H       0.53620   0.20390   0.63266   0.10878
H          H       0.46447   0.28300   0.63565   0.11567
H          H       0.40208   0.06419   0.73999   0.11106
H          H       0.49922   0.07411   0.69446   0.10622
H          H       0.26458   0.05781   0.66949   0.10738
H          H       0.26642   0.06302   0.57398   0.11303
H          H       0.32588   0.27683   0.56526   0.12065
H          H       0.30206   0.19332   0.51172   0.11029
H          H       0.40429   0.07848   0.50695   0.11543
H          H       0.50125   0.08262   0.55397   0.11613
H          H       0.29853   0.18007   0.74600   0.10936
H          H       0.32388   0.26882   0.70120   0.11609
H          H       0.96363   0.79620   0.13209   0.10869
H          H       0.03561   0.71726   0.13492   0.11675
H          H       0.09775   0.93553   0.24008   0.11177
H          H       0.00064   0.92608   0.19445   0.10593
H          H       0.23553   0.94235   0.16961   0.10708
H          H       0.23356   0.93702   0.07413   0.11271
H          H       0.17382   0.72343   0.06515   0.11925
H          H       0.19827   0.80694   0.01177   0.10981
H          H       0.09580   0.92225   0.00696   0.11587
H          H      -0.00121   0.91793   0.05397   0.11521
H          H       0.20074   0.82013   0.24601   0.11099
H          H       0.17577   0.73127   0.20112   0.11593
H          H       0.46363   0.70383   0.86790   0.10867
H          H       0.53558   0.78278   0.86508   0.11676
H          H       0.59777   0.56447   0.75991   0.11174
H          H       0.50064   0.57400   0.80555   0.10621
H          H       0.73552   0.55761   0.83036   0.10717
H          H       0.73357   0.56293   0.92586   0.11288
H          H       0.67386   0.77655   0.93483   0.11782
H          H       0.69828   0.69307   0.98822   0.11014
H          H       0.59584   0.57779   0.99304   0.11667
H          H       0.49880   0.58212   0.94607   0.11504
H          H       0.70076   0.67989   0.75396   0.11107
H          H       0.67579   0.76873   0.79889   0.11595
H          H       0.03629   0.29607   0.36729   0.10914
H          H       0.96452   0.21702   0.36431   0.11562
H          H       0.90208   0.43586   0.26005   0.11090
H          H      -0.00077   0.42595   0.30553   0.10633
H          H       0.76458   0.44221   0.33056   0.10709
H          H       0.76643   0.43701   0.42607   0.11304
H          H       0.82606   0.22321   0.43475   0.11789
H          H       0.80220   0.30672   0.48832   0.11080
H          H       0.90435   0.42153   0.49307   0.11638
H          H       0.00131   0.41743   0.44601   0.11600
H          H       0.79857   0.32001   0.25407   0.10920
H          H       0.82397   0.23124   0.29883   0.11597
C          C       0.53102   0.77198   0.50233   0.59198
C          C       0.57305   0.81098   0.43784   0.06233
C          C       0.53131   0.78089   0.36728  -0.24240
C          C       0.57516   0.81895   0.30182   0.05597
C          C       0.56768   0.90883   0.30708  -0.24691
C          C       0.60905   0.93832   0.37701   0.06175
C          C       0.70324   0.91487   0.37675  -0.24594
C          C       0.71182   0.82556   0.37185   0.06180
C          C       0.66768   0.78699   0.43787  -0.23913
C          C       0.56574   0.90054   0.44314  -0.24857
C          C       0.66976   0.79502   0.30164  -0.23752
C          C       0.53547   0.79235   0.23061   0.59540
C          C       0.60432   0.02780   0.38357   0.56222
C          C       0.80432   0.80048   0.37428   0.59491
C          C       0.96858   0.22785   0.00280   0.59549
C          C       0.92689   0.18851   0.93820   0.06273
C          C       0.96884   0.21887   0.86784  -0.24394
C          C       0.92527   0.18106   0.80222   0.05480
C          C       0.93253   0.09119   0.80711  -0.24788
C          C       0.89095   0.06147   0.87680   0.06392
C          C       0.79674   0.08504   0.87657  -0.24515
C          C       0.78827   0.17439   0.87168   0.06327
C          C       0.83226   0.21271   0.93793  -0.23667
C          C       0.93420   0.09890   0.94320  -0.24988
C          C       0.83070   0.20491   0.80170  -0.23980
C          C       0.96510   0.20790   0.73122   0.59657
C          C       0.89563   0.97197   0.88249   0.56173
C          C       0.69570   0.19956   0.87327   0.59633
C          C       0.46873   0.27213   0.99722   0.59525
C          C       0.42688   0.31146   0.06179   0.06326
C          C       0.46884   0.28108   0.13214  -0.24400
C          C       0.42528   0.31889   0.19779   0.05429
C          C       0.43253   0.40875   0.19291  -0.24819
C          C       0.39097   0.43850   0.12322   0.06381
C          C       0.29674   0.41500   0.12345  -0.24536
C          C       0.28826   0.32563   0.12835   0.06346
C          C       0.33222   0.28729   0.06210  -0.23769
C          C       0.43419   0.40104   0.05680  -0.24957
C          C       0.33071   0.29508   0.19832  -0.23942
C          C       0.46517   0.29207   0.26879   0.59814
C          C       0.39559   0.52800   0.11751   0.56189
C          C       0.19573   0.30031   0.12669   0.59554
C          C       0.03108   0.72808   0.49759   0.59368
C          C       0.07293   0.68898   0.56216   0.06219
C          C       0.03122   0.71910   0.63275  -0.24315
C          C       0.07510   0.68099   0.69818   0.05619
C          C       0.06767   0.59112   0.69290  -0.24692
C          C       0.10906   0.56165   0.62297   0.06232
C          C       0.20325   0.58514   0.62320  -0.24624
C          C       0.21174   0.67445   0.62810   0.06210
C          C       0.16751   0.71298   0.56210  -0.24011
C          C       0.06569   0.59942   0.55687  -0.24975
C          C       0.16968   0.70492   0.69834  -0.23801
C          C       0.03543   0.70764   0.76939   0.59555
C          C       0.10433   0.47218   0.61640   0.56183
C          C       0.30422   0.69965   0.62574   0.59479
C          C       0.46898   0.22802   0.49767   0.59193
C          C       0.42696   0.18902   0.56216   0.06231
C          C       0.46869   0.21911   0.63273  -0.24238
C          C       0.42484   0.18105   0.69818   0.05598
C          C       0.43232   0.09117   0.69292  -0.24681
C          C       0.39096   0.06168   0.62299   0.06176
C          C       0.29677   0.08513   0.62325  -0.24586
C          C       0.28818   0.17444   0.62815   0.06182
C          C       0.33232   0.21301   0.56214  -0.23912
C          C       0.43426   0.09946   0.55686  -0.24858
C          C       0.33024   0.20498   0.69837  -0.23763
C          C       0.46453   0.20765   0.76940   0.59531
C          C       0.39569   0.97220   0.61643   0.56228
C          C       0.19568   0.19952   0.62573   0.59498
C          C       0.03142   0.77215   0.99720   0.59524
C          C       0.07312   0.81149   0.06180   0.06261
C          C       0.03116   0.78113   0.13216  -0.24391
C          C       0.07473   0.81893   0.19778   0.05466
C          C       0.06748   0.90881   0.19289  -0.24783
C          C       0.10905   0.93853   0.12320   0.06410
C          C       0.20326   0.91496   0.12343  -0.24515
C          C       0.21174   0.82561   0.12832   0.06331
C          C       0.16775   0.78729   0.06207  -0.23770
C          C       0.06580   0.90110   0.05680  -0.24913
C          C       0.16930   0.79508   0.19830  -0.23968
C          C       0.03490   0.79210   0.26878   0.59672
C          C       0.10438   0.02803   0.11751   0.56152
C          C       0.30431   0.80044   0.12673   0.59560
C          C       0.53127   0.72787   0.00279   0.59522
C          C       0.57312   0.68855   0.93821   0.06328
C          C       0.53117   0.71892   0.86786  -0.24403
C          C       0.57473   0.68111   0.80221   0.05433
C          C       0.56747   0.59125   0.80709  -0.24838
C          C       0.60904   0.56150   0.87679   0.06398
C          C       0.70326   0.58500   0.87655  -0.24540
C          C       0.71174   0.67437   0.87165   0.06345
C          C       0.66778   0.71271   0.93790  -0.23757
C          C       0.56581   0.59896   0.94320  -0.24955
C          C       0.66930   0.70492   0.80168  -0.23950
C          C       0.53483   0.70793   0.73121   0.59826
C          C       0.60442   0.47200   0.88249   0.56156
C          C       0.80428   0.69969   0.87332   0.59538
C          C       0.96892   0.27192   0.50242   0.59373
C          C       0.92708   0.31102   0.43784   0.06230
C          C       0.96879   0.28090   0.36725  -0.24294
C          C       0.92490   0.31901   0.30182   0.05614
C          C       0.93233   0.40888   0.30711  -0.24692
C          C       0.89094   0.43835   0.37703   0.06241
C          C       0.79675   0.41486   0.37680  -0.24625
C          C       0.78826   0.32555   0.37190   0.06207
C          C       0.83249   0.28702   0.43790  -0.23787
C          C       0.93432   0.40059   0.44313  -0.24960
C          C       0.83032   0.29508   0.30167  -0.23786
C          C       0.96457   0.29236   0.23061   0.59529
C          C       0.89567   0.52782   0.38360   0.56171
C          C       0.69578   0.30035   0.37426   0.59474
O          O       0.50916   0.81297   0.55665  -0.55800
O          O       0.52085   0.69703   0.49995  -0.51830
O          O       0.49149   0.73038   0.22891  -0.53151
O          O       0.54972   0.83708   0.17547  -0.54016
O          O       0.56618   0.06363   0.32993  -0.55764
O          O       0.63598   0.06290   0.43601  -0.53872
O          O       0.85873   0.85307   0.39291  -0.53096
O          O       0.82138   0.72978   0.35967  -0.53337
O          O       0.98977   0.18743   0.05783  -0.56243
O          O       0.97926   0.30247  -0.00024  -0.51752
O          O       0.00910   0.26979   0.72934  -0.53147
O          O       0.95053   0.16302   0.67623  -0.54025
O          O       0.93386   0.93642   0.82875  -0.55751
O          O       0.86345   0.93649   0.93458  -0.54001
O          O       0.64117   0.14712   0.89138  -0.53262
O          O       0.67887   0.27012   0.85825  -0.53293
O          O       0.49016   0.31248   0.94223  -0.56277
O          O       0.47918   0.19748   0.00018  -0.51710
O          O       0.50929   0.23029   0.27070  -0.53163
O          O       0.45052   0.33695   0.32383  -0.54110
O          O       0.43389   0.56353   0.17125  -0.55744
O          O       0.36345   0.56353   0.06541  -0.54018
O          O       0.14111   0.35268   0.10856  -0.53236
O          O       0.17892   0.22976   0.14178  -0.53265
O          O       0.00906   0.68693   0.44337  -0.55993
O          O       0.02100   0.80286   0.49982  -0.51716
O          O       0.99146   0.76960   0.77113  -0.53090
O          O       0.04976   0.66287   0.82451  -0.54046
O          O       0.06614   0.43640   0.67005  -0.55770
O          O       0.13611   0.43709   0.56402  -0.53849
O          O       0.35874   0.64730   0.60709  -0.53114
O          O       0.32098   0.77029   0.64028  -0.53182
O          O       0.49085   0.18704   0.44336  -0.55794
O          O       0.47915   0.30299   0.50006  -0.51840
O          O       0.50852   0.26961   0.77108  -0.53141
O          O       0.45027   0.16293   0.82453  -0.54009
O          O       0.43383   0.93638   0.67008  -0.55741
O          O       0.36402   0.93710   0.56400  -0.53893
O          O       0.14127   0.14693   0.60708  -0.53108
O          O       0.17863   0.27021   0.64035  -0.53322
O          O       0.01023   0.81259   0.94220  -0.56218
O          O       0.02074   0.69752   0.00023  -0.51753
O          O       0.99089   0.73021   0.27069  -0.53167
O          O       0.04945   0.83697   0.32378  -0.54020
O          O       0.06613   0.06359   0.17124  -0.55734
O          O       0.13654   0.06352   0.06542  -0.54005
O          O       0.35884   0.85288   0.10863  -0.53233
O          O       0.32114   0.72987   0.14175  -0.53279
O          O       0.50984   0.68753   0.05780  -0.56276
O          O       0.52082   0.80251  -0.00016  -0.51709
O          O       0.49072   0.76972   0.72931  -0.53187
O          O       0.54946   0.66307   0.67618  -0.54095
O          O       0.56611   0.43647   0.82876  -0.55746
O          O       0.63655   0.43648   0.93461  -0.53982
O          O       0.85890   0.64733   0.89144  -0.53214
O          O       0.82108   0.77025   0.85824  -0.53272
O          O       0.99094   0.31308   0.55663  -0.55981
O          O       0.97899   0.19714   0.50019  -0.51723
O          O       0.00854   0.23040   0.22887  -0.53086
O          O       0.95026   0.33712   0.17550  -0.54033
O          O       0.93386   0.56360   0.32994  -0.55793
O          O       0.86389   0.56292   0.43597  -0.53825
O          O       0.64125   0.35271   0.39292  -0.53108
O          O       0.67901   0.22969   0.35971  -0.53178

