data_crystal

_audit_creation_method 'AiiDA-DDEC plugin'

_cell_length_a         7.22591
_cell_length_b        20.44113
_cell_length_c        21.56131

_cell_angle_alpha     90.00000
_cell_angle_beta     90.00000
_cell_angle_gamma     90.00000

_symmetry_space_group_name_Hall 'P 1'
_symmetry_space_group_name_H-M  'P 1'

loop_
_symmetry_equiv_pos_as_xyz
 'x,y,z'

loop_
_atom_site_label
_atom_site_type_symbol
_atom_site_fract_x
_atom_site_fract_y
_atom_site_fract_z
_atom_site_charge
Cu         Cu      0.41413   0.32722   0.41394   0.47740
Cu         Cu      0.58587   0.32722   0.08605   0.47745
Cu         Cu      0.41413   0.17278   0.58606   0.47746
Cu         Cu      0.58587   0.17278   0.91395   0.47742
Cu         Cu      0.58592   0.67277   0.58605   0.47752
Cu         Cu      0.41407   0.67277   0.91395   0.47756
Cu         Cu      0.58592   0.82723   0.41395   0.47758
Cu         Cu      0.41408   0.82723   0.08605   0.47760
Cu         Cu      0.50000   0.50000   0.50000   0.71002
Cu         Cu      0.50000   0.50000   0.00000   0.71006
Cu         Cu      0.50000  -0.00000   0.50001   0.70998
Cu         Cu      0.49999   0.00000  -0.00000   0.71009
Cu         Cu      0.00000   0.82514   0.25000   0.14918
Cu         Cu      0.00000   0.67485   0.75000   0.14922
Cu         Cu      0.00000   0.17486   0.75000   0.14952
Cu         Cu     -0.00001   0.32513   0.25000   0.14939
H          H       0.77745   0.28973   0.46499   0.09008
H          H       0.07980   0.34639   0.48632   0.12566
H          H       0.88456   0.50684   0.37406   0.13329
H          H       0.59452   0.44101   0.35371   0.10719
H          H       0.54230   0.62915   0.43760   0.11317
H          H       0.55920   0.70617   0.35189   0.10887
H          H       0.39262   0.78733   0.28622   0.09226
H          H       0.88101   0.71216   0.33466   0.08219
H          H       0.02512   0.62474   0.40013   0.12833
H          H       0.22255   0.28973   0.03501   0.09003
H          H       0.92019   0.34639   0.01368   0.12564
H          H       0.11544   0.50683   0.12594   0.13331
H          H       0.40548   0.44101   0.14629   0.10720
H          H       0.45770   0.62915   0.06240   0.11318
H          H       0.44080   0.70617   0.14811   0.10883
H          H       0.60738   0.78733   0.21378   0.09223
H          H       0.11898   0.71216   0.16535   0.08222
H          H       0.97488   0.62474   0.09987   0.12834
H          H       0.77744   0.21027   0.53501   0.08992
H          H       0.07980   0.15361   0.51368   0.12560
H          H       0.88456   0.99316   0.62594   0.13346
H          H       0.59452   0.05899   0.64629   0.10727
H          H       0.54230   0.87085   0.56240   0.11317
H          H       0.55920   0.79382   0.64811   0.10891
H          H       0.39262   0.71266   0.71378   0.09252
H          H       0.88101   0.78783   0.66534   0.08220
H          H       0.02512   0.87526   0.59987   0.12813
H          H       0.22255   0.21026   0.96498   0.08991
H          H       0.92019   0.15361   0.98632   0.12560
H          H       0.11544   0.99316   0.87406   0.13347
H          H       0.40547   0.05899   0.85371   0.10720
H          H       0.45770   0.87085   0.93760   0.11317
H          H       0.44080   0.79382   0.85189   0.10890
H          H       0.60738   0.71266   0.78622   0.09251
H          H       0.11898   0.78783   0.83465   0.08220
H          H       0.97488   0.87525   0.90013   0.12813
H          H       0.22263   0.71026   0.53500   0.08976
H          H       0.92025   0.65362   0.51367   0.12549
H          H       0.11542   0.49317   0.62595   0.13349
H          H       0.40548   0.55898   0.64629   0.10724
H          H       0.45766   0.37088   0.56241   0.11336
H          H       0.44078   0.29383   0.64811   0.10895
H          H       0.60737   0.21267   0.71378   0.09254
H          H       0.11897   0.28784   0.66534   0.08219
H          H       0.97487   0.37526   0.59986   0.12829
H          H       0.77737   0.71026   0.96500   0.08973
H          H       0.07974   0.65362   0.98633   0.12551
H          H       0.88458   0.49317   0.87405   0.13350
H          H       0.59451   0.55898   0.85371   0.10732
H          H       0.54234   0.37088   0.93759   0.11334
H          H       0.55921   0.29383   0.85189   0.10886
H          H       0.39262   0.21267   0.78622   0.09240
H          H       0.88102   0.28784   0.83466   0.08228
H          H       0.02513   0.37526   0.90014   0.12835
H          H       0.22263   0.78974   0.46500   0.09015
H          H       0.92025   0.84638   0.48633   0.12563
H          H       0.11542   0.00683   0.37405   0.13336
H          H       0.40548   0.94101   0.35371   0.10724
H          H       0.45766   0.12912   0.43759   0.11331
H          H       0.44078   0.20616   0.35189   0.10894
H          H       0.60738   0.28733   0.28623   0.09237
H          H       0.11897   0.21215   0.33467   0.08222
H          H       0.97487   0.12474   0.40014   0.12838
H          H       0.77738   0.78974   0.03500   0.09008
H          H       0.07975   0.84638   0.01367   0.12562
H          H       0.88458   0.00683   0.12595   0.13338
H          H       0.59452   0.94101   0.14629   0.10722
H          H       0.54234   0.12912   0.06241   0.11329
H          H       0.55921   0.20616   0.14811   0.10894
H          H       0.39262   0.28732   0.21378   0.09241
H          H       0.88102   0.21215   0.16534   0.08225
H          H       0.02513   0.12474   0.09986   0.12843
C          C       0.37080   0.27046   0.47813  -0.40048
C          C       0.80787   0.33782   0.44597   0.08525
C          C       0.97262   0.36996   0.45865  -0.13403
C          C       0.00020   0.43273   0.43424   0.04852
C          C       0.86423   0.45912   0.39517  -0.13800
C          C       0.70423   0.42326   0.38395   0.05072
C          C       0.17108   0.46925   0.44955   0.40398
C          C       0.40692   0.61274   0.42135   0.03824
C          C       0.30531   0.65758   0.38137   0.11134
C          C       0.40851   0.70466   0.34850  -0.17239
C          C       0.31695   0.75000   0.31171   0.07244
C          C       0.03121   0.70798   0.33879   0.07961
C          C       0.11078   0.65975   0.37546  -0.16020
C          C       0.80805   0.85605   0.30168  -0.05970
C          C       0.62922   0.27046   0.02186  -0.40048
C          C       0.19213   0.33782   0.05403   0.08527
C          C       0.02737   0.36996   0.04135  -0.13401
C          C      -0.00020   0.43273   0.06576   0.04848
C          C       0.13577   0.45911   0.10483  -0.13795
C          C       0.29577   0.42326   0.11605   0.05073
C          C       0.82892   0.46925   0.05045   0.40407
C          C       0.59308   0.61274   0.07865   0.03828
C          C       0.69469   0.65758   0.11863   0.11131
C          C       0.59149   0.70466   0.15150  -0.17235
C          C       0.68305   0.75000   0.18829   0.07243
C          C       0.96879   0.70798   0.16121   0.07957
C          C       0.88922   0.65975   0.12454  -0.16016
C          C       0.19193   0.85605   0.19832  -0.05980
C          C       0.37080   0.22954   0.52187  -0.40032
C          C       0.80787   0.16218   0.55403   0.08529
C          C       0.97262   0.13004   0.54135  -0.13415
C          C       0.00020   0.06727   0.56576   0.04855
C          C       0.86423   0.04088   0.60483  -0.13802
C          C       0.70423   0.07674   0.61605   0.05082
C          C       0.17108   0.03075   0.55045   0.40402
C          C       0.40692   0.88726   0.57865   0.03884
C          C       0.30531   0.84241   0.61863   0.11103
C          C       0.40851   0.79533   0.65150  -0.17253
C          C       0.31695   0.75000   0.68829   0.07243
C          C       0.03121   0.79201   0.66121   0.07956
C          C       0.11078   0.84024   0.62454  -0.16013
C          C       0.80807   0.64395   0.69832  -0.05972
C          C       0.62921   0.22954   0.97813  -0.40035
C          C       0.19213   0.16218   0.94597   0.08512
C          C       0.02737   0.13004   0.95865  -0.13390
C          C      -0.00020   0.06727   0.93424   0.04841
C          C       0.13576   0.04088   0.89517  -0.13776
C          C       0.29577   0.07674   0.88395   0.05065
C          C       0.82891   0.03075   0.94955   0.40397
C          C       0.59308   0.88726   0.92135   0.03887
C          C       0.69469   0.84241   0.88137   0.11106
C          C       0.59149   0.79533   0.84850  -0.17249
C          C       0.68305   0.75000   0.81171   0.07236
C          C       0.96879   0.79201   0.83879   0.07954
C          C       0.88922   0.84024   0.87546  -0.16013
C          C       0.19193   0.64395   0.80168  -0.05981
C          C       0.62925   0.72954   0.52186  -0.40012
C          C       0.19218   0.66218   0.55403   0.08543
C          C       0.02741   0.63005   0.54135  -0.13397
C          C      -0.00020   0.56728   0.56576   0.04860
C          C       0.13576   0.54089   0.60483  -0.13790
C          C       0.29578   0.57674   0.61605   0.05083
C          C       0.82891   0.53076   0.55045   0.40381
C          C       0.59306   0.38727   0.57865   0.03820
C          C       0.69468   0.34242   0.61863   0.11142
C          C       0.59147   0.29534   0.65150  -0.17237
C          C       0.68304   0.25001   0.68829   0.07221
C          C       0.96878   0.29202   0.66121   0.07941
C          C       0.88920   0.34025   0.62453  -0.16042
C          C       0.19193   0.14396   0.69833  -0.05971
C          C       0.37077   0.72954   0.97814  -0.40025
C          C       0.80781   0.66218   0.94597   0.08542
C          C       0.97258   0.63004   0.95865  -0.13401
C          C       0.00019   0.56728   0.93424   0.04862
C          C       0.86424   0.54089   0.89517  -0.13791
C          C       0.70421   0.57674   0.88395   0.05078
C          C       0.17108   0.53076   0.94955   0.40386
C          C       0.40694   0.38727   0.92135   0.03819
C          C       0.30532   0.34242   0.88137   0.11143
C          C       0.40852   0.29534   0.84850  -0.17240
C          C       0.31695   0.25001   0.81171   0.07236
C          C       0.03122   0.29202   0.83880   0.07953
C          C       0.11080   0.34025   0.87547  -0.16048
C          C       0.80806   0.14396   0.80168  -0.05982
C          C       0.62925   0.77046   0.47814  -0.40049
C          C       0.19218   0.83782   0.44597   0.08530
C          C       0.02741   0.86995   0.45865  -0.13393
C          C      -0.00020   0.93272   0.43424   0.04869
C          C       0.13576   0.95911   0.39517  -0.13830
C          C       0.29578   0.92326   0.38395   0.05076
C          C       0.82891   0.96924   0.44955   0.40377
C          C       0.59306   0.11272   0.42135   0.03822
C          C       0.69467   0.15758   0.38137   0.11153
C          C       0.59147   0.20465   0.34851  -0.17253
C          C       0.68304   0.24999   0.31172   0.07244
C          C       0.96878   0.20797   0.33880   0.07955
C          C       0.88920   0.15974   0.37547  -0.16046
C          C       0.19193   0.35603   0.30167  -0.05975
C          C       0.37077   0.77046   0.02186  -0.40045
C          C       0.80782   0.83782   0.05403   0.08530
C          C       0.97259   0.86995   0.04135  -0.13391
C          C       0.00020   0.93272   0.06576   0.04867
C          C       0.86424   0.95911   0.10483  -0.13826
C          C       0.70422   0.92326   0.11605   0.05074
C          C       0.17109   0.96924   0.05045   0.40392
C          C       0.40693   0.11273   0.07865   0.03812
C          C       0.30532   0.15758   0.11863   0.11147
C          C       0.40852   0.20466   0.15150  -0.17246
C          C       0.31696   0.24999   0.18829   0.07220
C          C       0.03122   0.20797   0.16121   0.07955
C          C       0.11079   0.15975   0.12453  -0.16039
C          C       0.80805   0.35604   0.19832  -0.05978
N          N       0.67392   0.36420   0.41019  -0.21009
N          N       0.19231   0.52799   0.42358  -0.31381
N          N       0.35722   0.55497   0.44147  -0.11476
N          N       0.13084   0.75249   0.30691  -0.16904
N          N       0.69429   0.86431   0.34031  -0.38448
N          N       0.32608   0.36420   0.08981  -0.21013
N          N       0.80769   0.52799   0.07642  -0.31373
N          N       0.64278   0.55497   0.05853  -0.11485
N          N       0.86916   0.75249   0.19309  -0.16901
N          N       0.30574   0.86432   0.15968  -0.38461
N          N       0.67392   0.13579   0.58981  -0.21024
N          N       0.19231   0.97200   0.57642  -0.31379
N          N       0.35722   0.94503   0.55853  -0.11518
N          N       0.13084   0.74750   0.69309  -0.16886
N          N       0.69428   0.63568   0.65968  -0.38435
N          N       0.32607   0.13579   0.91019  -0.21025
N          N       0.80769   0.97200   0.92358  -0.31372
N          N       0.64278   0.94503   0.94147  -0.11528
N          N       0.86916   0.74750   0.80691  -0.16880
N          N       0.30573   0.63568   0.84032  -0.38434
N          N       0.32612   0.63579   0.58981  -0.21047
N          N       0.80769   0.47202   0.57642  -0.31355
N          N       0.64276   0.44505   0.55853  -0.11490
N          N       0.86915   0.24752   0.69309  -0.16886
N          N       0.30576   0.13569   0.65968  -0.38459
N          N       0.67387   0.63579   0.91019  -0.21043
N          N       0.19231   0.47202   0.92358  -0.31353
N          N       0.35724   0.44505   0.94147  -0.11494
N          N       0.13085   0.24752   0.80691  -0.16893
N          N       0.69424   0.13569   0.84032  -0.38439
N          N       0.32612   0.86421   0.41019  -0.21023
N          N       0.80768   0.02798   0.42358  -0.31385
N          N       0.64276   0.05495   0.44147  -0.11480
N          N       0.86915   0.25248   0.30691  -0.16910
N          N       0.30575   0.36430   0.34031  -0.38455
N          N       0.67388   0.86421   0.08981  -0.21024
N          N       0.19231   0.02798   0.07642  -0.31381
N          N       0.35724   0.05495   0.05854  -0.11488
N          N       0.13085   0.25248   0.19309  -0.16897
N          N       0.69426   0.36431   0.15969  -0.38447
O          O       0.28746   0.44195   0.48748  -0.52123
O          O       0.71254   0.44195   0.01252  -0.52134
O          O       0.28746   0.05805   0.51252  -0.52149
O          O       0.71253   0.05805   0.98748  -0.52142
O          O       0.71253   0.55805   0.51252  -0.52145
O          O       0.28746   0.55805   0.98748  -0.52152
O          O       0.71254   0.94194   0.48748  -0.52124
O          O       0.28747   0.94194   0.01252  -0.52128

