data_crystal

_audit_creation_method 'AiiDA-DDEC plugin'

_cell_length_a        14.34448
_cell_length_b        14.35310
_cell_length_c        15.97357

_cell_angle_alpha     90.66502
_cell_angle_beta     90.67377
_cell_angle_gamma     91.57437

_symmetry_space_group_name_Hall 'P 1'
_symmetry_space_group_name_H-M  'P 1'

loop_
_symmetry_equiv_pos_as_xyz
 'x,y,z'

loop_
_atom_site_label
_atom_site_type_symbol
_atom_site_fract_x
_atom_site_fract_y
_atom_site_fract_z
_atom_site_charge
Ni         Ni      0.82283   0.51883   0.61936   0.75775
Ni         Ni      0.48145   0.17703   0.88061   0.75757
Ni         Ni      0.17717   0.48117   0.38064   0.75780
Ni         Ni      0.51855   0.82297   0.11938   0.75735
Ni         Ni      0.87944   0.12015   0.75071   0.75052
Ni         Ni      0.12057   0.87985   0.24929   0.75043
H          H       0.96349   0.63870   0.71540   0.11489
H          H       0.00991   0.27062   0.86061   0.11651
H          H       0.72984   0.93654   0.93557   0.11789
H          H       0.71861   0.25201   0.82387   0.11986
H          H       0.83858   0.78391   0.72731   0.12634
H          H       0.67064   0.64181   0.91070   0.12449
H          H       0.38784   0.68353   0.01156   0.12134
H          H       0.39829   0.97833   0.01940   0.13391
H          H       0.27201   0.91983   0.89672   0.13861
H          H       0.97310   0.34773   0.68087   0.12819
H          H       0.05675   0.33772   0.00093   0.12926
H          H       0.13132   0.40645   0.76979   0.13496
H          H       0.85865   0.53818   0.91610   0.13417
H          H       0.76114   0.40890   0.92167   0.14030
H          H       0.02463   0.70274   0.83052   0.12707
H          H       0.35853   0.62382   0.86252   0.13512
H          H       0.25025   0.51641   0.78360   0.13580
H          H       0.13341   0.80954   0.90855   0.14119
H          H       0.36115   0.03665   0.78437   0.11501
H          H       0.72905   0.98967   0.64034   0.11599
H          H       0.06269   0.27013   0.56521   0.11682
H          H       0.74801   0.28083   0.67671   0.11950
H          H       0.21608   0.16150   0.77311   0.12672
H          H       0.35781   0.32892   0.58917   0.12484
H          H       0.31678   0.61220   0.48841   0.12161
H          H       0.02182   0.60138   0.48046   0.13352
H          H       0.08015   0.72775   0.60309   0.13856
H          H       0.65218   0.02670   0.81954   0.12835
H          H       0.66224   0.94286   0.49931   0.12905
H          H       0.59346   0.86862   0.73052   0.13475
H          H       0.46200   0.14129   0.58392   0.13406
H          H       0.59162   0.23846   0.57809   0.14038
H          H       0.29705   0.97527   0.66933   0.12725
H          H       0.37634   0.64163   0.63753   0.13532
H          H       0.48365   0.74995   0.71649   0.13561
H          H       0.19036   0.86643   0.59126   0.14143
H          H       0.03652   0.36130   0.28460   0.11502
H          H       0.99010   0.72938   0.13939   0.11645
H          H       0.27016   0.06346   0.06443   0.11793
H          H       0.28139   0.74799   0.17613   0.11991
H          H       0.16142   0.21609   0.27268   0.12623
H          H       0.32936   0.35818   0.08930   0.12452
H          H       0.61216   0.31647   0.98844   0.12136
H          H       0.60171   0.02167   0.98060   0.13392
H          H       0.72800   0.08017   0.10328   0.13865
H          H       0.02690   0.65227   0.31912   0.12817
H          H       0.94325   0.66228  -0.00093   0.12916
H          H       0.86868   0.59355   0.23020   0.13495
H          H       0.14135   0.46182   0.08390   0.13422
H          H       0.23887   0.59110   0.07832   0.14040
H          H       0.97538   0.29726   0.16947   0.12717
H          H       0.64147   0.37618   0.13748   0.13493
H          H       0.74975   0.48359   0.21640   0.13571
H          H       0.86659   0.19046   0.09145   0.14129
H          H       0.63885   0.96335   0.21563   0.11522
H          H       0.27095   0.01033   0.35966   0.11595
H          H       0.93731   0.72987   0.43478   0.11684
H          H       0.25199   0.71917   0.32329   0.11962
H          H       0.78393   0.83850   0.22689   0.12676
H          H       0.64219   0.67107   0.41082   0.12471
H          H       0.68323   0.38780   0.51158   0.12148
H          H       0.97819   0.39862   0.51953   0.13359
H          H       0.91985   0.27225   0.39691   0.13879
H          H       0.34782   0.97330   0.18046   0.12836
H          H       0.33777   0.05714   0.50069   0.12891
H          H       0.40655   0.13138   0.26948   0.13469
H          H       0.53801   0.85871   0.41608   0.13415
H          H       0.40838   0.76154   0.42191   0.14043
H          H       0.70295   0.02473   0.33067   0.12735
H          H       0.62366   0.35837   0.36247   0.13527
H          H       0.51635   0.25005   0.28350   0.13556
H          H       0.80965   0.13357   0.40874   0.14148
C          C       0.98673   0.56786   0.71902   0.09246
C          C       0.83103   0.95882   0.79713   0.53615
C          C       0.62629   0.79450   0.00057   0.55187
C          C       0.93662   0.28578   0.86391   0.08218
C          C       0.13054   0.60265   0.80158   0.15677
C          C       0.73786   0.87091   0.90228  -0.10889
C          C       0.79131   0.86926   0.82961  -0.03996
C          C       0.78552   0.27953   0.84596  -0.03413
C          C       0.25240   0.72329   0.88996   0.14783
C          C       0.69281   0.78968   0.93022  -0.04367
C          C       0.80039   0.78510   0.78571  -0.11710
C          C       0.75883   0.70256   0.81577  -0.04192
C          C       0.70520   0.70499   0.88817  -0.10982
C          C       0.37374   0.75559  -0.00129   0.08953
C          C       0.37597   0.90802   0.00162  -0.00475
C          C       0.31363   0.88060   0.93991  -0.10454
C          C       0.95201   0.43026   0.95387   0.15154
C          C       0.76838   0.61231   0.76860   0.54892
C          C       0.99506   0.41734   0.70121  -0.01519
C          C       0.03247   0.40889  -0.00043  -0.16189
C          C       0.07363   0.44537   0.74558  -0.11603
C          C       0.91955   0.52154   0.95418  -0.15425
C          C       0.80491   0.35601   0.89581  -0.09044
C          C       0.09794   0.68599   0.83570  -0.15576
C          C       0.28530   0.64043   0.85574  -0.15759
C          C       0.22435   0.58003   0.81146  -0.15189
C          C       0.15885   0.74628   0.87964  -0.14543
C          C       0.43201   0.01335   0.78088   0.09217
C          C       0.04083   0.16898   0.70378   0.53724
C          C       0.20520   0.37347   0.49955   0.55140
C          C       0.71399   0.06293   0.63691   0.08409
C          C       0.39727   0.86951   0.69840   0.15734
C          C       0.12853   0.26211   0.59825  -0.10789
C          C       0.13038   0.20868   0.67098  -0.04032
C          C       0.72046   0.21396   0.65463  -0.03285
C          C       0.27675   0.74759   0.60993   0.14816
C          C       0.20978   0.30702   0.57002  -0.04287
C          C       0.21473   0.19962   0.71468  -0.11813
C          C       0.29727   0.24109   0.68440  -0.04037
C          C       0.29463   0.29452   0.61190  -0.11117
C          C       0.24464   0.62619   0.50124   0.08903
C          C       0.09213   0.62376   0.49828  -0.00318
C          C       0.11946   0.68618   0.55993  -0.10533
C          C       0.56982   0.04776   0.54628   0.15138
C          C       0.38770   0.23157   0.73145   0.54755
C          C       0.58257   0.00482   0.79904  -0.01549
C          C       0.59109   0.96732   0.50056  -0.16125
C          C       0.55453   0.92631   0.75465  -0.11590
C          C       0.47856   0.08042   0.54583  -0.15420
C          C       0.64426   0.19466   0.60436  -0.09024
C          C       0.31388   0.90201   0.66419  -0.15679
C          C       0.35966   0.71481   0.64425  -0.15787
C          C       0.41999   0.77578   0.68857  -0.15168
C          C       0.25366   0.84107   0.62021  -0.14512
C          C       0.01328   0.43213   0.28097   0.09233
C          C       0.16897   0.04118   0.20287   0.53614
C          C       0.37371   0.20550  -0.00057   0.55158
C          C       0.06339   0.71422   0.13609   0.08189
C          C       0.86946   0.39735   0.19841   0.15678
C          C       0.26214   0.12909   0.09771  -0.10891
C          C       0.20869   0.13074   0.17039  -0.03986
C          C       0.21448   0.72046   0.15404  -0.03420
C          C       0.74760   0.27670   0.11004   0.14764
C          C       0.30719   0.21032   0.06977  -0.04347
C          C       0.19962   0.21490   0.21429  -0.11721
C          C       0.24118   0.29744   0.18422  -0.04216
C          C       0.29480   0.29501   0.11182  -0.10974
C          C       0.62626   0.24440   0.00129   0.08918
C          C       0.62403   0.09198  -0.00162  -0.00464
C          C       0.68637   0.11939   0.06009  -0.10459
C          C       0.04799   0.56974   0.04613   0.15144
C          C       0.23162   0.38769   0.23140   0.54909
C          C       0.00494   0.58266   0.29879  -0.01528
C          C       0.96753   0.59111   0.00042  -0.16192
C          C       0.92637   0.55463   0.25442  -0.11615
C          C       0.08046   0.47846   0.04582  -0.15427
C          C       0.19510   0.64399   0.10419  -0.09024
C          C       0.90206   0.31401   0.16430  -0.15571
C          C       0.71471   0.35957   0.14426  -0.15741
C          C       0.77566   0.41997   0.18854  -0.15207
C          C       0.84115   0.25372   0.12036  -0.14526
C          C       0.56799   0.98665   0.21912   0.09217
C          C       0.95918   0.83102   0.29622   0.53712
C          C       0.79480   0.62653   0.50045   0.55156
C          C       0.28601   0.93707   0.36309   0.08400
C          C       0.60273   0.13049   0.30160   0.15725
C          C       0.87148   0.73789   0.40174  -0.10781
C          C       0.86962   0.79132   0.32902  -0.04023
C          C       0.27954   0.78604   0.34536  -0.03293
C          C       0.72325   0.25240   0.39007   0.14811
C          C       0.79022   0.69298   0.42998  -0.04298
C          C       0.78527   0.80038   0.28532  -0.11812
C          C       0.70274   0.75891   0.31560  -0.04037
C          C       0.70538   0.70548   0.38810  -0.11126
C          C       0.75536   0.37381   0.49876   0.08888
C          C       0.90787   0.37624   0.50172  -0.00313
C          C       0.88054   0.31382   0.44007  -0.10527
C          C       0.43018   0.95224   0.45372   0.15126
C          C       0.61230   0.76843   0.26855   0.54766
C          C       0.41743   0.99518   0.20096  -0.01558
C          C       0.40891   0.03267   0.49944  -0.16121
C          C       0.44547   0.07368   0.24534  -0.11616
C          C       0.52144   0.91958   0.45417  -0.15401
C          C       0.35574   0.80533   0.39563  -0.09022
C          C       0.68612   0.09799   0.33581  -0.15673
C          C       0.64035   0.28519   0.35575  -0.15796
C          C       0.58001   0.22422   0.31143  -0.15169
C          C       0.74635   0.15893   0.37979  -0.14504
N          N       0.86799   0.23702   0.82550  -0.26945
N          N       0.90117   0.35960   0.90764   0.01605
N          N       0.41203   0.82932   0.03829  -0.29492
N          N       0.31287   0.78349   0.93811   0.01401
N          N       0.94185   0.49441   0.68513  -0.27334
N          N       0.06755   0.54154   0.75722   0.01741
N          N       0.76265   0.13147   0.67550  -0.27066
N          N       0.64052   0.09843   0.59267   0.01425
N          N       0.17093   0.58777   0.46168  -0.29501
N          N       0.21663   0.68708   0.56175   0.01339
N          N       0.50550   0.05811   0.81490  -0.27292
N          N       0.45835   0.93251   0.74280   0.01738
N          N       0.13201   0.76298   0.17450  -0.26949
N          N       0.09883   0.64040   0.09236   0.01636
N          N       0.58797   0.17068   0.96171  -0.29481
N          N       0.68714   0.21651   0.06189   0.01419
N          N       0.05815   0.50559   0.31487  -0.27316
N          N       0.93246   0.45846   0.24278   0.01742
N          N       0.23736   0.86853   0.32450  -0.27062
N          N       0.35948   0.90156   0.40733   0.01425
N          N       0.82907   0.41223   0.53832  -0.29513
N          N       0.78337   0.31292   0.43824   0.01346
N          N       0.49450   0.94189   0.18509  -0.27269
N          N       0.54166   0.06748   0.25720   0.01739
O          O       0.81917   0.03321   0.84108  -0.54372
O          O       0.87126   0.96241   0.72650  -0.53818
O          O       0.61131   0.87536   0.03339  -0.51023
O          O       0.58281   0.72197   0.02549  -0.53375
O          O       0.75466   0.53585   0.80390  -0.57802
O          O       0.79202   0.62451   0.69137  -0.56224
O          O       0.96623   0.18096   0.66012  -0.54381
O          O       0.03747   0.12867   0.77438  -0.53935
O          O       0.12441   0.38862   0.46657  -0.51044
O          O       0.27789   0.41679   0.47465  -0.53315
O          O       0.46416   0.24529   0.69607  -0.57786
O          O       0.37561   0.20790   0.80867  -0.56159
O          O       0.18083   0.96679   0.15891  -0.54350
O          O       0.12874   0.03759   0.27349  -0.53844
O          O       0.38870   0.12463   0.96660  -0.51005
O          O       0.41719   0.27802   0.97451  -0.53369
O          O       0.24534   0.46415   0.19610  -0.57808
O          O       0.20798   0.37549   0.30863  -0.56227
O          O       0.03378   0.81904   0.33987  -0.54383
O          O       0.96253   0.87133   0.22562  -0.53923
O          O       0.87560   0.61138   0.53343  -0.51024
O          O       0.72212   0.58321   0.52535  -0.53341
O          O       0.53584   0.75471   0.30392  -0.57809
O          O       0.62439   0.79210   0.19132  -0.56142

