data_crystal

_audit_creation_method 'AiiDA-DDEC plugin'

_cell_length_a        12.40300
_cell_length_b        12.98291
_cell_length_c        33.77503

_cell_angle_alpha     90.00014
_cell_angle_beta     89.99910
_cell_angle_gamma     98.82866

_symmetry_space_group_name_Hall 'P 1'
_symmetry_space_group_name_H-M  'P 1'

loop_
_symmetry_equiv_pos_as_xyz
 'x,y,z'

loop_
_atom_site_label
_atom_site_type_symbol
_atom_site_fract_x
_atom_site_fract_y
_atom_site_fract_z
_atom_site_charge
Mn         Mn      0.70120   0.10680   0.56794   0.89925
Mn         Mn      0.29881   0.89322   0.06793   0.89946
Mn         Mn      0.29880   0.89321   0.43205   0.89932
Mn         Mn      0.70119   0.10678   0.93207   0.89950
Mn         Mn      0.50000   0.00000   0.50000   1.10930
Mn         Mn      0.50000  -0.00000   0.00000   1.10926
Co         Co      0.23004   0.20400   0.25000  -0.16202
Co         Co      0.76995   0.79600   0.75000  -0.16182
H          H       0.35226   0.14146   0.53706   0.11625
H          H       0.82376   0.28257   0.67434   0.10838
H          H       0.72590   0.18077   0.65320   0.13031
H          H       0.94566   0.21001   0.47756   0.11105
H          H       0.16080   0.16887   0.54648   0.10934
H          H       0.06315   0.25458   0.41781   0.10699
H          H       0.97395   0.07357   0.52551   0.14638
H          H       0.88466   0.97542   0.55056   0.15404
H          H       0.02889   0.98480   0.55715   0.13850
H          H       0.37763   0.07317   0.66056   0.11318
H          H       0.18209   0.09282   0.67013   0.10381
H          H       0.65983   0.78824   0.62382   0.11983
H          H       0.67949   0.71940   0.49991   0.11137
H          H       0.66501   0.13039   0.40340   0.12002
H          H       0.67731   0.60575   0.64018   0.10654
H          H       0.20029   0.08806   0.32791   0.13596
H          H       0.06639   0.03181   0.34313   0.13008
H          H       0.15072   0.11455   0.37570   0.14474
H          H       0.71370   0.54089   0.51605   0.11095
H          H       0.78046   0.17614   0.34340   0.10691
H          H       0.56132   0.26416   0.52954   0.16352
H          H       0.65416   0.36051   0.50493   0.14834
H          H       0.54366   0.39812   0.53165   0.14344
H          H       0.84302   0.37074   0.28645   0.13665
H          H       0.94213   0.47297   0.30440   0.11646
H          H       0.85807   0.39201   0.33824   0.15979
H          H       0.01344   0.24072   0.70294   0.13406
H          H       0.02579   0.35173   0.67146   0.12473
H          H       0.13179   0.27445   0.67327   0.15813
H          H       0.92161   0.46180   0.65283   0.12924
H          H       0.80399   0.47241   0.68183   0.13123
H          H       0.84838   0.56630   0.64493   0.15325
H          H       0.64776   0.85853   0.03706   0.11614
H          H       0.17626   0.71742   0.17435   0.10852
H          H       0.27412   0.81921   0.15320   0.13020
H          H       0.05434   0.78999   0.97756   0.11107
H          H       0.83922   0.83112   0.04648   0.10921
H          H       0.93683   0.74543   0.91781   0.10711
H          H       0.02608   0.92644   0.02552   0.14631
H          H       0.11539   0.02459   0.05057   0.15386
H          H       0.97115   0.01522   0.05716   0.13870
H          H       0.62236   0.92682   0.16056   0.11339
H          H       0.81791   0.90719   0.17013   0.10384
H          H       0.34019   0.21178   0.12381   0.12000
H          H       0.32054   0.28062  -0.00009   0.11119
H          H       0.33499   0.86960   0.90341   0.11988
H          H       0.32272   0.39427   0.14017   0.10658
H          H       0.79970   0.91193   0.82791   0.13616
H          H       0.93359   0.96819   0.84313   0.13015
H          H       0.84926   0.88544   0.87571   0.14461
H          H       0.28633   0.45914   0.01605   0.11085
H          H       0.21954   0.82387   0.84339   0.10700
H          H       0.43868   0.73583   0.02953   0.16328
H          H       0.34583   0.63948   0.00492   0.14823
H          H       0.45634   0.60186   0.03165   0.14345
H          H       0.15697   0.62927   0.78644   0.13666
H          H       0.05786   0.52703   0.80440   0.11655
H          H       0.14192   0.60799   0.83824   0.15956
H          H       0.98656   0.75928   0.20295   0.13417
H          H       0.97422   0.64828   0.17145   0.12466
H          H       0.86822   0.72555   0.17327   0.15832
H          H       0.07839   0.53819   0.15283   0.12938
H          H       0.19601   0.52759   0.18182   0.13122
H          H       0.15161   0.43369   0.14494   0.15323
H          H       0.64774   0.85855   0.46294   0.11607
H          H       0.17624   0.71744   0.32565   0.10865
H          H       0.27409   0.81923   0.34679   0.13030
H          H       0.05434   0.78999   0.52244   0.11142
H          H       0.83920   0.83113   0.45352   0.10898
H          H       0.93684   0.74543   0.58219   0.10724
H          H       0.02605   0.92643   0.47448   0.14625
H          H       0.11534   0.02458   0.44943   0.15401
H          H       0.97111   0.01521   0.44284   0.13876
H          H       0.62236   0.92683   0.33944   0.11339
H          H       0.81791   0.90718   0.32987   0.10396
H          H       0.34017   0.21177   0.37618   0.11993
H          H       0.32051   0.28060   0.50008   0.11112
H          H       0.33499   0.86961   0.59659   0.11985
H          H       0.32269   0.39425   0.35982   0.10675
H          H       0.79971   0.91194   0.67209   0.13595
H          H       0.93360   0.96819   0.65687   0.13003
H          H       0.84927   0.88545   0.62429   0.14500
H          H       0.28629   0.45912   0.48395   0.11081
H          H       0.21954   0.82386   0.65660   0.10638
H          H       0.43867   0.73585   0.47046   0.16338
H          H       0.34583   0.63950   0.49507   0.14818
H          H       0.45634   0.60188   0.46835   0.14318
H          H       0.15698   0.62926   0.71355   0.13631
H          H       0.05787   0.52703   0.69560   0.11637
H          H       0.14192   0.60799   0.66175   0.15989
H          H       0.98655   0.75928   0.29705   0.13435
H          H       0.97421   0.64827   0.32854   0.12460
H          H       0.86820   0.72555   0.32673   0.15828
H          H       0.07839   0.53820   0.34717   0.12943
H          H       0.19601   0.52760   0.31817   0.13138
H          H       0.15161   0.43371   0.35506   0.15307
H          H       0.35224   0.14147   0.96294   0.11596
H          H       0.82374   0.28258   0.82565   0.10875
H          H       0.72587   0.18079   0.84679   0.13032
H          H       0.94566   0.21001   0.02244   0.11132
H          H       0.16077   0.16888   0.95352   0.10907
H          H       0.06317   0.25457   0.08218   0.10716
H          H       0.97391   0.07356   0.97448   0.14607
H          H       0.88461   0.97541   0.94943   0.15390
H          H       0.02885   0.98478   0.94283   0.13858
H          H       0.37763   0.07318   0.83943   0.11350
H          H       0.18209   0.09281   0.82986   0.10428
H          H       0.65980   0.78822   0.87619   0.12020
H          H       0.67945   0.71938   0.00009   0.11099
H          H       0.66500   0.13040   0.09659   0.11997
H          H       0.67727   0.60573   0.85983   0.10676
H          H       0.20030   0.08808   0.17208   0.13592
H          H       0.06640   0.03182   0.15686   0.13014
H          H       0.15073   0.11456   0.12429   0.14485
H          H       0.71366   0.54087   0.98395   0.11050
H          H       0.78046   0.17614   0.15660   0.10677
H          H       0.56131   0.26417   0.97046   0.16329
H          H       0.65416   0.36052   0.99507   0.14789
H          H       0.54365   0.39814   0.96835   0.14358
H          H       0.84302   0.37074   0.21355   0.13645
H          H       0.94213   0.47297   0.19560   0.11648
H          H       0.85807   0.39201   0.16176   0.15984
H          H       0.01343   0.24073   0.79705   0.13456
H          H       0.02577   0.35172   0.82854   0.12467
H          H       0.13177   0.27445   0.82673   0.15815
H          H       0.92161   0.46181   0.84716   0.12918
H          H       0.80398   0.47241   0.81817   0.13152
H          H       0.84838   0.56631   0.85506   0.15322
H          H       0.17886   0.40236   0.25000   0.08649
H          H       0.04522   0.44208   0.25000   0.09489
H          H       0.82114   0.59764   0.75000   0.08666
H          H       0.95478   0.55792   0.75000   0.09470
C          C       0.69894   0.55953   0.57934   0.09861
C          C       0.95593   0.10050   0.58763   0.23753
C          C       0.15739   0.13388   0.60908   0.10292
C          C       0.67219   0.35874   0.56835   0.23606
C          C       0.65491   0.87553   0.55130   0.58453
C          C       0.04204   0.14621   0.61299  -0.16860
C          C       0.66932   0.76585   0.56086  -0.03572
C          C       0.72823   0.13456   0.47915   0.58538
C          C       0.37712   0.10644   0.59834  -0.03590
C          C       0.31511   0.13273   0.56625  -0.09708
C          C       0.49335   0.09383   0.59239   0.57031
C          C       0.79630   0.24121   0.64710  -0.02463
C          C       0.98341   0.31873   0.31289   0.11693
C          C       0.91088   0.20248   0.44794  -0.09749
C          C       0.20726   0.14688   0.57160  -0.13942
C          C       0.79878   0.16638   0.44397  -0.05302
C          C       0.71410   0.45248   0.58903  -0.16876
C          C       0.99350   0.20468   0.64067   0.13165
C          C       0.99648   0.24271   0.34082  -0.17398
C          C       0.97601   0.22735   0.41458  -0.14503
C          C       0.92943   0.21793   0.37649   0.10604
C          C       0.96142   0.02939   0.55332  -0.44567
C          C       0.08466   0.19350   0.32721   0.20053
C          C       0.32884   0.09434   0.63595  -0.09655
C          C       0.22003   0.10689   0.64119  -0.15910
C          C       0.77136   0.42102   0.62137   0.14652
C          C       0.67053   0.73316   0.60040  -0.10007
C          C       0.68191   0.69462   0.53063  -0.10138
C          C       0.75191   0.15838   0.40608  -0.08549
C          C       0.68251   0.63086   0.60943  -0.14960
C          C       0.12782   0.10244   0.34446  -0.43317
C          C       0.69925   0.59378   0.53974  -0.14732
C          C       0.81653   0.18417   0.37282  -0.15514
C          C       0.60400   0.34448   0.53172  -0.44246
C          C       0.90295   0.39254   0.31024  -0.43009
C          C       0.04290   0.27135   0.67389  -0.42802
C          C       0.83927   0.48297   0.65195  -0.43789
C          C       0.30105   0.44047   0.07934   0.09874
C          C       0.04409   0.89951   0.08764   0.23740
C          C       0.84262   0.86613   0.10908   0.10261
C          C       0.32781   0.64125   0.06835   0.23586
C          C       0.34511   0.12447   0.05130   0.58461
C          C       0.95797   0.85380   0.11300  -0.16835
C          C       0.33068   0.23414   0.06085  -0.03576
C          C       0.27176   0.86541   0.97915   0.58529
C          C       0.62289   0.89355   0.09834  -0.03560
C          C       0.68490   0.86728   0.06625  -0.09722
C          C       0.50665   0.90617   0.09240   0.56998
C          C       0.20372   0.75878   0.14710  -0.02436
C          C       0.01659   0.68127   0.81290   0.11661
C          C       0.08910   0.79751   0.94794  -0.09756
C          C       0.79276   0.85312   0.07159  -0.13921
C          C       0.20121   0.83361   0.94397  -0.05305
C          C       0.28589   0.54752   0.08903  -0.16879
C          C       0.00652   0.79533   0.14067   0.13177
C          C       0.00352   0.75729   0.84083  -0.17395
C          C       0.02398   0.77265   0.91459  -0.14494
C          C       0.07056   0.78208   0.87650   0.10611
C          C       0.03862   0.97062   0.05333  -0.44574
C          C       0.91533   0.80649   0.82722   0.20040
C          C       0.67117   0.90566   0.13596  -0.09660
C          C       0.77998   0.89312   0.14119  -0.15907
C          C       0.22864   0.57898   0.12137   0.14647
C          C       0.32947   0.26685   0.10039  -0.09991
C          C       0.31810   0.30539   0.03063  -0.10138
C          C       0.24808   0.84162   0.90608  -0.08560
C          C       0.31750   0.36914   0.10943  -0.14974
C          C       0.87216   0.89755   0.84446  -0.43321
C          C       0.30075   0.40623   0.03974  -0.14740
C          C       0.18347   0.81583   0.87281  -0.15509
C          C       0.39600   0.65551   0.03172  -0.44225
C          C       0.09705   0.60746   0.81023  -0.43013
C          C       0.95711   0.72865   0.17389  -0.42820
C          C       0.16073   0.51702   0.15195  -0.43783
C          C       0.30105   0.44047   0.42065   0.09862
C          C       0.04407   0.89950   0.41236   0.23773
C          C       0.84261   0.86612   0.39092   0.10252
C          C       0.32780   0.64126   0.43165   0.23608
C          C       0.34509   0.12447   0.44869   0.58445
C          C       0.95795   0.85379   0.38700  -0.16845
C          C       0.33068   0.23415   0.43914  -0.03561
C          C       0.27177   0.86544   0.52085   0.58577
C          C       0.62288   0.89356   0.40166  -0.03589
C          C       0.68488   0.86728   0.43374  -0.09723
C          C       0.50664   0.90617   0.40760   0.57012
C          C       0.20370   0.75879   0.35290  -0.02434
C          C       0.01658   0.68127   0.68710   0.11681
C          C       0.08911   0.79752   0.55206  -0.09724
C          C       0.79274   0.85312   0.42840  -0.13926
C          C       0.20122   0.83362   0.55603  -0.05317
C          C       0.28589   0.54752   0.41097  -0.16889
C          C       0.00649   0.79532   0.35933   0.13174
C          C       0.00352   0.75729   0.65917  -0.17386
C          C       0.02399   0.77265   0.58541  -0.14530
C          C       0.07056   0.78208   0.62350   0.10605
C          C       0.03858   0.97061   0.44667  -0.44604
C          C       0.91533   0.80650   0.67278   0.20059
C          C       0.67116   0.90566   0.36405  -0.09636
C          C       0.77997   0.89311   0.35881  -0.15888
C          C       0.22864   0.57899   0.37862   0.14680
C          C       0.32946   0.26684   0.39960  -0.10005
C          C       0.31809   0.30538   0.46937  -0.10160
C          C       0.24808   0.84163   0.59392  -0.08570
C          C       0.31749   0.36914   0.39056  -0.14953
C          C       0.87217   0.89756   0.65554  -0.43320
C          C       0.30074   0.40623   0.46026  -0.14723
C          C       0.18347   0.81583   0.62718  -0.15482
C          C       0.39599   0.65552   0.46828  -0.44230
C          C       0.09705   0.60746   0.68976  -0.42994
C          C       0.95709   0.72865   0.32610  -0.42806
C          C       0.16073   0.51703   0.34805  -0.43788
C          C       0.69895   0.55953   0.92066   0.09869
C          C       0.95590   0.10049   0.91236   0.23731
C          C       0.15737   0.13387   0.89092   0.10249
C          C       0.67219   0.35875   0.93165   0.23597
C          C       0.65488   0.87553   0.94870   0.58477
C          C       0.04202   0.14620   0.88700  -0.16830
C          C       0.66931   0.76586   0.93915  -0.03567
C          C       0.72823   0.13459   0.02085   0.58538
C          C       0.37710   0.10645   0.90166  -0.03550
C          C       0.31510   0.13273   0.93374  -0.09747
C          C       0.49334   0.09383   0.90760   0.57042
C          C       0.79628   0.24122   0.85290  -0.02418
C          C       0.98341   0.31873   0.18710   0.11651
C          C       0.91089   0.20249   0.05206  -0.09741
C          C       0.20724   0.14688   0.92840  -0.13907
C          C       0.79879   0.16639   0.05603  -0.05311
C          C       0.71410   0.45249   0.91097  -0.16890
C          C       0.99348   0.20467   0.85933   0.13173
C          C       0.99647   0.24272   0.15917  -0.17388
C          C       0.97602   0.22735   0.08541  -0.14524
C          C       0.92943   0.21793   0.12350   0.10606
C          C       0.96138   0.02938   0.94667  -0.44575
C          C       0.08467   0.19351   0.17278   0.20046
C          C       0.32883   0.09434   0.86404  -0.09665
C          C       0.22001   0.10688   0.85880  -0.15918
C          C       0.77135   0.42102   0.87862   0.14665
C          C       0.67052   0.73315   0.89960  -0.09992
C          C       0.68189   0.69461   0.96937  -0.10167
C          C       0.75191   0.15838   0.09392  -0.08555
C          C       0.68250   0.63086   0.89057  -0.14944
C          C       0.12783   0.10245   0.15553  -0.43325
C          C       0.69925   0.59377   0.96026  -0.14724
C          C       0.81652   0.18417   0.12718  -0.15506
C          C       0.60400   0.34449   0.96828  -0.44213
C          C       0.90295   0.39254   0.18976  -0.42986
C          C       0.04289   0.27135   0.82610  -0.42822
C          C       0.83927   0.48299   0.84805  -0.43785
C          C       0.08997   0.37582   0.25000  -0.02014
C          C       0.91003   0.62418   0.75000  -0.02010
N          N       0.88450   0.19149   0.63146   0.08358
N          N       0.70043   0.27590   0.58725  -0.28333
N          N       0.76083   0.31459   0.61932   0.06896
N          N       0.86101   0.12790   0.59939  -0.27646
N          N       0.06386   0.31522   0.28529   0.06821
N          N       0.12512   0.23753   0.29285  -0.20037
N          N       0.11552   0.80851   0.13147   0.08345
N          N       0.29958   0.72410   0.08725  -0.28329
N          N       0.23917   0.68541   0.11932   0.06890
N          N       0.13901   0.87210   0.09940  -0.27653
N          N       0.93614   0.68478   0.78529   0.06829
N          N       0.87488   0.76247   0.79285  -0.20001
N          N       0.11549   0.80851   0.36853   0.08351
N          N       0.29957   0.72411   0.41275  -0.28336
N          N       0.23916   0.68541   0.38068   0.06866
N          N       0.13898   0.87210   0.40060  -0.27687
N          N       0.93614   0.68478   0.71471   0.06806
N          N       0.87487   0.76247   0.70715  -0.20017
N          N       0.88448   0.19149   0.86853   0.08355
N          N       0.70042   0.27590   0.91275  -0.28368
N          N       0.76082   0.31460   0.88068   0.06893
N          N       0.86099   0.12790   0.90060  -0.27662
N          N       0.06385   0.31522   0.21470   0.06845
N          N       0.12512   0.23753   0.20715  -0.20024
O          O       0.69791   0.94585   0.57547  -0.55449
O          O       0.55607   0.08820   0.62128  -0.55227
O          O       0.52910   0.09372   0.55581  -0.59355
O          O       0.77275   0.14536   0.51354  -0.56604
O          O       0.62874   0.09917   0.47239  -0.57153
O          O       0.60316   0.89080   0.51989  -0.56514
O          O       0.30216   0.05415   0.07547  -0.55426
O          O       0.44392   0.91179   0.12128  -0.55184
O          O       0.47091   0.90629   0.05582  -0.59380
O          O       0.22723   0.85465   0.01353  -0.56611
O          O       0.37127   0.90076   0.97239  -0.57188
O          O       0.39683   0.10920   0.01988  -0.56542
O          O       0.30209   0.05415   0.42453  -0.55417
O          O       0.44393   0.91180   0.37872  -0.55166
O          O       0.47090   0.90629   0.44419  -0.59385
O          O       0.22725   0.85464   0.48646  -0.56589
O          O       0.37126   0.90083   0.52761  -0.57203
O          O       0.39684   0.10920   0.48010  -0.56541
O          O       0.69784   0.94585   0.92453  -0.55414
O          O       0.55608   0.08821   0.87871  -0.55172
O          O       0.52908   0.09371   0.94418  -0.59446
O          O       0.77276   0.14535   0.98646  -0.56605
O          O       0.62872   0.09924   0.02760  -0.57181
O          O       0.60317   0.89080   0.98012  -0.56560

