data_crystal

_audit_creation_method 'AiiDA-DDEC plugin'

_cell_length_a        15.80191
_cell_length_b        15.79661
_cell_length_c        21.51559

_cell_angle_alpha     90.02144
_cell_angle_beta     89.98602
_cell_angle_gamma     119.99674

_symmetry_space_group_name_Hall 'P 1'
_symmetry_space_group_name_H-M  'P 1'

loop_
_symmetry_equiv_pos_as_xyz
 'x,y,z'

loop_
_atom_site_label
_atom_site_type_symbol
_atom_site_fract_x
_atom_site_fract_y
_atom_site_fract_z
_atom_site_charge
Co         Co      0.44812   0.29856   0.09564   1.01622
Co         Co      0.51366   0.48748   0.19369   0.90031
Co         Co      0.70137   0.15000   0.42964   1.01600
Co         Co      0.51242   0.02668   0.52738   0.89918
Co         Co      0.85001   0.55109   0.76183   1.01714
Co         Co      0.97291   0.48576   0.86011   0.90151
Co         Co      0.55181   0.70135   0.59564   1.01787
Co         Co      0.48517   0.51271   0.69342   0.89764
Co         Co      0.29832   0.85024   0.92985   1.01759
Co         Co      0.48721   0.97281   0.02737   0.89800
Co         Co      0.14988   0.44839   0.26330   1.01635
Co         Co      0.02668   0.51393   0.36102   0.89993
H          H       0.52472   0.33471   0.56165   0.12447
H          H       0.54887   0.55492   0.43431   0.11585
H          H       0.60430   0.32799   0.37142   0.12258
H          H       0.61393   0.55849   0.32657   0.08601
H          H       0.63352   0.46318   0.30101   0.10538
H          H       0.39775   0.29013   0.32812   0.11653
H          H       0.50056   0.30822   0.28375   0.13300
H          H       0.46397   0.54013   0.33433   0.12122
H          H       0.38198   0.41871   0.35940   0.12224
H          H       0.30399   0.35926   0.09356   0.10083
H          H       0.12695   0.29266   0.08322   0.12088
H          H       0.10000   0.00981   0.04739   0.13325
H          H       0.27884   0.08922   0.05829   0.09745
H          H       0.95173   0.02126   0.04668   0.11224
H          H       0.97838   0.22223   0.08221   0.11016
H          H       0.83786   0.24067   0.07026   0.11623
H          H       0.65826   0.16657   0.05522   0.10266
H          H       0.61786   0.88666   0.05065   0.10490
H          H       0.79544   0.94794   0.06470   0.12522
H          H       0.66516   0.19101   0.89531   0.12403
H          H       0.44545   0.99335   0.76841   0.11628
H          H       0.67183   0.27534   0.70457   0.12176
H          H       0.44207   0.05513   0.65973   0.08622
H          H       0.53770   0.17020   0.63484   0.10571
H          H       0.71014   0.10604   0.66158   0.11690
H          H       0.69292   0.19199   0.61793   0.13366
H          H       0.45989   0.92315   0.66663   0.12115
H          H       0.58088   0.96124   0.69172   0.12224
H          H       0.64060   0.94483   0.42712   0.10067
H          H       0.70730   0.83441   0.41656   0.12057
H          H       0.98993   0.09042   0.38077   0.13355
H          H       0.91039   0.18979   0.39187   0.09630
H          H       0.97862   0.93075   0.38007   0.11203
H          H       0.77779   0.75635   0.41554   0.11013
H          H       0.75946   0.59744   0.40364   0.11660
H          H       0.83352   0.49182   0.38879   0.10254
H          H       0.11340   0.73133   0.38403   0.10482
H          H       0.05202   0.84771   0.39787   0.12556
H          H       0.80814   0.47469   0.22839   0.12389
H          H       0.00595   0.45148   0.10231   0.11601
H          H       0.72444   0.39603   0.03760   0.12211
H          H       0.94514   0.38658   0.99347   0.08647
H          H       0.83005   0.36670   0.96822   0.10532
H          H       0.89302   0.60285   0.99437   0.11626
H          H       0.80786   0.49961   0.95032   0.13300
H          H       0.07659   0.53654   0.00051   0.12155
H          H       0.03753   0.61881   0.02547   0.12258
H          H       0.05522   0.69562   0.75996   0.10085
H          H       0.16568   0.87279   0.74997   0.12129
H          H       0.90989   0.89975   0.71404   0.13380
H          H       0.81050   0.72077   0.72466   0.09684
H          H       0.06943   0.04795   0.71335   0.11143
H          H       0.24376   0.02153   0.74892   0.11032
H          H       0.40253   0.16205   0.73691   0.11634
H          H       0.50804   0.34165   0.72153   0.10275
H          H       0.26867   0.38213   0.71716   0.10410
H          H       0.15236   0.20449   0.73154   0.12537
H          H       0.47372   0.66497   0.06149   0.12405
H          H       0.45126   0.44532   0.93446   0.11610
H          H       0.39593   0.67213   0.87085   0.12212
H          H       0.38653   0.44154   0.82637   0.08677
H          H       0.36694   0.53683   0.80085   0.10618
H          H       0.60296   0.70939   0.82799   0.11623
H          H       0.50006   0.69207   0.78395   0.13282
H          H       0.53691   0.45972   0.83298   0.12186
H          H       0.62016   0.58112   0.85730   0.12306
H          H       0.69588   0.64080   0.59369   0.10097
H          H       0.87290   0.70739   0.58331   0.12140
H          H       0.89985   0.99022   0.54738   0.13369
H          H       0.72098   0.91073   0.55827   0.09692
H          H       0.04810   0.97861   0.54663   0.11198
H          H       0.02119   0.77760   0.58231   0.11017
H          H       0.16175   0.75907   0.57028   0.11605
H          H       0.34131   0.83307   0.55522   0.10257
H          H       0.38181   0.11307   0.55077   0.10527
H          H       0.20425   0.05180   0.56481   0.12552
H          H       0.33460   0.80853   0.39512   0.12370
H          H       0.55477   0.00646   0.26869   0.11619
H          H       0.32878   0.72440   0.20437   0.12263
H          H       0.55885   0.94532   0.16011   0.08617
H          H       0.46364   0.83021   0.13485   0.10537
H          H       0.29115   0.89345   0.16233   0.11692
H          H       0.30821   0.80790   0.11794   0.13309
H          H       0.54072   0.07733   0.16674   0.12176
H          H       0.41953   0.03869   0.19179   0.12210
H          H       0.35901   0.05501   0.92760   0.10100
H          H       0.29255   0.16558   0.91661   0.12099
H          H       0.00989   0.90962   0.88066   0.13405
H          H       0.08922   0.81012   0.89206   0.09679
H          H       0.02134   0.06945   0.87987   0.11171
H          H       0.22215   0.24371   0.91553   0.11025
H          H       0.24056   0.40281   0.90368   0.11625
H          H       0.16657   0.50838   0.88842   0.10296
H          H       0.88671   0.26891   0.88366   0.10431
H          H       0.94800   0.15254   0.89805   0.12552
H          H       0.19061   0.52553   0.72855   0.12386
H          H       0.99439   0.54846   0.60109   0.11632
H          H       0.27703   0.60444   0.53822   0.12272
H          H       0.05586   0.61365   0.49353   0.08614
H          H       0.17045   0.63306   0.46774   0.10616
H          H       0.10647   0.39647   0.49539   0.11644
H          H       0.19218   0.49940   0.45155   0.13296
H          H       0.92357   0.46371   0.50060   0.12190
H          H       0.96204   0.38127   0.52589   0.12230
H          H       0.94475   0.30396   0.26096   0.10063
H          H       0.83428   0.12694   0.24995   0.12102
H          H       0.09011   0.10015   0.21396   0.13370
H          H       0.18960   0.27899   0.22543   0.09701
H          H       0.93044   0.95177   0.21322   0.11213
H          H       0.75626   0.97842   0.24897   0.11014
H          H       0.59738   0.83821   0.23684   0.11593
H          H       0.49155   0.65860   0.22165   0.10349
H          H       0.73058   0.61759   0.21682   0.10457
H          H       0.84724   0.79514   0.23128   0.12554
C          C       0.56505   0.32167   0.46715  -0.02940
C          C       0.53895   0.36471   0.51483  -0.11628
C          C       0.53531   0.45030   0.50274  -0.03035
C          C       0.55218   0.48860   0.44230  -0.15505
C          C       0.57355   0.44342   0.39367   0.07681
C          C       0.58273   0.36199   0.40726  -0.14792
C          C       0.58391   0.47915   0.32764  -0.14161
C          C       0.44270   0.32734   0.28727  -0.23237
C          C       0.38142   0.28620   0.22805   0.61269
C          C       0.42158   0.46356   0.31897  -0.23296
C          C       0.34928   0.46018   0.27049   0.61155
C          C       0.57927   0.23504   0.47607   0.59284
C          C       0.51798   0.50494   0.55375   0.58800
C          C       0.25625   0.28270   0.08210   0.09371
C          C       0.15664   0.24430   0.07677  -0.18181
C          C       0.09577   0.14391   0.06417   0.13138
C          C       0.14174   0.08782   0.05724  -0.17523
C          C       0.24268   0.13201   0.06308   0.10529
C          C       0.99034   0.09836   0.05949  -0.12696
C          C       0.93919   0.14483   0.07027  -0.13179
C          C       0.83408   0.10122   0.06612   0.13517
C          C       0.79220   0.16177   0.06536  -0.18161
C          C       0.69217   0.12123   0.05761   0.07830
C          C       0.67002   0.96441   0.05493   0.07857
C          C       0.76913  -0.00035   0.06202  -0.18243
C          C       0.67828   0.24359   0.80057  -0.03057
C          C       0.63526   0.17477   0.84847  -0.11488
C          C       0.54983   0.08522   0.83663  -0.03265
C          C       0.51173   0.06309   0.77614  -0.15336
C          C       0.55681   0.12930   0.72732   0.07532
C          C       0.63801   0.22018   0.74068  -0.14626
C          C       0.52140   0.10427   0.66119  -0.14210
C          C       0.67342   0.11481   0.62083  -0.23081
C          C       0.71423   0.09537   0.56115   0.61060
C          C       0.53645   0.95720   0.65136  -0.23410
C          C       0.54005   0.88898   0.60233   0.61058
C          C       0.76492   0.34472   0.80909   0.59224
C          C       0.49513   0.01356   0.88787   0.59084
C          C       0.71714   0.97369   0.41564   0.09402
C          C       0.75558   0.91249   0.41021  -0.18134
C          C       0.85593   0.95204   0.39757   0.13209
C          C       0.91196   0.05411   0.39071  -0.17672
C          C       0.86772   0.11083   0.39665   0.10695
C          C       0.90155   0.89219   0.39288  -0.12673
C          C       0.85518   0.79456   0.40361  -0.13212
C          C       0.89886   0.73307   0.39951   0.13526
C          C       0.83834   0.63062   0.39877  -0.18241
C          C       0.87887   0.57109   0.39108   0.07944
C          C       0.03565   0.70573   0.38829   0.07792
C          C       0.00040   0.76965   0.39531  -0.18229
C          C       0.75613   0.43517   0.13357  -0.03079
C          C       0.82461   0.46084   0.18165  -0.11474
C          C       0.91393   0.46430   0.17013  -0.03214
C          C       0.93623   0.44818   0.10971  -0.15448
C          C       0.87035   0.42710   0.06069   0.07680
C          C       0.77952   0.41775   0.07380  -0.14762
C          C       0.89576   0.41654   0.99463  -0.14148
C          C       0.88487   0.55751   0.95363  -0.23150
C          C       0.90463   0.61838   0.89413   0.61169
C          C       0.04228   0.57875   0.98509  -0.23425
C          C       0.11067   0.65076   0.93630   0.61213
C          C       0.65504   0.42073   0.14198   0.59376
C          C       0.98505   0.48051   0.22163   0.58984
C          C       0.02641   0.74337   0.74856   0.09422
C          C       0.08765   0.84306   0.74343  -0.18265
C          C       0.04815   0.90394   0.73084   0.13190
C          C       0.94613   0.85797   0.72386  -0.17697
C          C       0.88941   0.75697   0.72953   0.10625
C          C       0.10795   0.00941   0.72619  -0.12509
C          C       0.20553   0.06069   0.73698  -0.13344
C          C       0.26694   0.16583   0.73280   0.13495
C          C       0.36936   0.20775   0.73195  -0.18088
C          C       0.42882   0.30776   0.72400   0.07784
C          C       0.29424   0.32994   0.72139   0.07779
C          C       0.23036   0.23082   0.72868  -0.18185
C          C       0.43462   0.67846   0.96681  -0.03061
C          C       0.46017   0.63523   0.01461  -0.11432
C          C       0.46386   0.54965   0.00268  -0.03303
C          C       0.44790   0.51167   0.94219  -0.15452
C          C       0.42700   0.55694   0.89341   0.07665
C          C       0.41750   0.63831   0.90683  -0.14627
C          C       0.41659   0.52090   0.82744  -0.14349
C          C       0.55778   0.67271   0.78712  -0.23163
C          C       0.61889   0.71406   0.72787   0.61193
C          C       0.57902   0.53609   0.81727  -0.23526
C          C       0.65029   0.53931   0.76790   0.61066
C          C       0.42037   0.76504   0.97602   0.59357
C          C       0.48047   0.49490   0.05390   0.59002
C          C       0.74361   0.71734   0.58219   0.09428
C          C       0.84321   0.75573   0.57684  -0.18321
C          C       0.90406   0.85608   0.56417   0.13217
C          C       0.85813   0.91221   0.55726  -0.17674
C          C       0.75720   0.86801   0.56310   0.10561
C          C       0.00946   0.90153   0.55947  -0.12654
C          C       0.06050   0.85498   0.57032  -0.13212
C          C       0.16560   0.89854   0.56621   0.13549
C          C       0.20746   0.83797   0.56542  -0.18153
C          C       0.30748   0.87848   0.55765   0.07787
C          C       0.32968   0.03532   0.55505   0.07734
C          C       0.23057   0.00010   0.56213  -0.18180
C          C       0.32165   0.75611   0.30037  -0.03119
C          C       0.36464   0.82483   0.34831  -0.11391
C          C       0.45020   0.91429   0.33661  -0.03219
C          C       0.48847   0.93663   0.27620  -0.15382
C          C       0.44359   0.87046   0.22733   0.07674
C          C       0.36225   0.77954   0.24054  -0.14791
C          C       0.47958   0.89592   0.16134  -0.14187
C          C       0.32764   0.88501   0.12134  -0.23181
C          C       0.28609   0.90473   0.06228   0.61263
C          C       0.46413   0.04292   0.15145  -0.23391
C          C       0.46013   0.11086   0.10232   0.61108
C          C       0.23494   0.65501   0.30901   0.59344
C          C       0.50484   0.98563   0.38795   0.58911
C          C       0.28254   0.02622   0.91595   0.09436
C          C       0.24421   0.08749   0.91030  -0.18203
C          C       0.14391   0.04799   0.89751   0.13163
C          C       0.08783   0.94590   0.89069  -0.17741
C          C       0.13194   0.88910   0.89681   0.10696
C          C       0.09839   0.10793   0.89272  -0.12582
C          C       0.14478   0.20556   0.90355  -0.13257
C          C       0.10118   0.26712   0.89942   0.13529
C          C       0.16170   0.36958   0.89865  -0.18075
C          C       0.12121   0.42910   0.89068   0.07772
C          C       0.96445   0.29449   0.88790   0.07860
C          C      -0.00036   0.23058   0.89524  -0.18240
C          C       0.24418   0.56551   0.63404  -0.03212
C          C       0.17494   0.53955   0.68166  -0.11430
C          C       0.08566   0.53569   0.66947  -0.03120
C          C       0.06410   0.55197   0.60900  -0.15471
C          C       0.13066   0.57324   0.56046   0.07620
C          C       0.22138   0.58271   0.57404  -0.14615
C          C       0.10508   0.58354   0.49453  -0.14172
C          C       0.11507   0.44172   0.45455  -0.23034
C          C       0.09543   0.38109   0.39505   0.61308
C          C       0.95773   0.42126   0.48538  -0.23546
C          C       0.88929   0.34913   0.43657   0.61085
C          C       0.34531   0.58032   0.64308   0.59278
C          C       0.01342   0.51884   0.72015   0.58868
C          C       0.97360   0.25630   0.24931   0.09529
C          C       0.91235   0.15668   0.24365  -0.18237
C          C       0.95184   0.09584   0.23088   0.13240
C          C       0.05388   0.14186   0.22403  -0.17668
C          C       0.11066   0.24280   0.23017   0.10613
C          C       0.89197   0.99037   0.22609  -0.12681
C          C       0.79441   0.93921   0.23693  -0.13209
C          C       0.73283   0.83409   0.23273   0.13599
C          C       0.63044   0.79239   0.23190  -0.18129
C          C       0.57078   0.69240   0.22401   0.07742
C          C       0.70522   0.66991   0.22126   0.07859
C          C       0.76926   0.76899   0.22854  -0.18290
N          N       0.49017   0.43541   0.29213  -0.08384
N          N       0.29998   0.22816   0.07510  -0.27625
N          N       0.63081   0.02365   0.05193  -0.24952
N          N       0.56523   0.05456   0.62536  -0.08440
N          N       0.77164   0.07198   0.40877  -0.27642
N          N       0.97645   0.60724   0.38547  -0.25087
N          N       0.94537   0.50993   0.95865  -0.08484
N          N       0.92818   0.69961   0.74144  -0.27649
N          N       0.39265   0.36915   0.71822  -0.24995
N          N       0.51007   0.56459   0.79156  -0.08266
N          N       0.69992   0.77190   0.57515  -0.27604
N          N       0.36890   0.97607   0.55204  -0.25026
N          N       0.43570   0.94552   0.12554  -0.08427
N          N       0.22799   0.92793   0.90907  -0.27678
N          N       0.02369   0.39295   0.88475  -0.25126
N          N       0.05488   0.48971   0.45907  -0.08422
N          N       0.07189   0.30007   0.24247  -0.27694
N          N       0.60681   0.63089   0.21823  -0.24940
O          O       0.42459   0.34137   0.17855  -0.63263
O          O       0.30418   0.20809   0.22803  -0.48886
O          O       0.37903   0.48359   0.21494  -0.55147
O          O       0.26457   0.43550   0.29077  -0.56126
O          O       0.63855   0.23170   0.43732  -0.56551
O          O       0.53298   0.17353   0.51919  -0.57547
O          O       0.48731   0.46242   0.60590  -0.55707
O          O       0.53759   0.59179   0.54041  -0.58462
O          O       0.65823   0.08356   0.51224  -0.63025
O          O       0.79244   0.09654   0.55987  -0.48809
O          O       0.51674   0.89580   0.54685  -0.54907
O          O       0.56515   0.82908   0.62226  -0.56039
O          O       0.76988   0.40638   0.76895  -0.56533
O          O       0.82526   0.36124   0.85326  -0.57619
O          O       0.53748   0.02618   0.94014  -0.55687
O          O       0.40849   0.94579   0.87467  -0.58752
O          O       0.91635   0.57501   0.84465  -0.63160
O          O       0.90377   0.69566   0.89378  -0.48936
O          O       0.10391   0.62090   0.88074  -0.55159
O          O       0.17065   0.73562   0.95643  -0.56077
O          O       0.59282   0.36157   0.10302  -0.56469
O          O       0.63917   0.46677   0.18500  -0.57619
O          O       0.97110   0.50847   0.27420  -0.55718
O          O       0.05358   0.46282   0.20832  -0.58636
O          O       0.57566   0.65906   0.67836  -0.63175
O          O       0.69624   0.79216   0.72794  -0.48971
O          O       0.62014   0.51628   0.71240  -0.54866
O          O       0.73524   0.56405   0.78773  -0.56115
O          O       0.36155   0.76898   0.93724  -0.56604
O          O       0.46627   0.82614   0.01946  -0.57526
O          O       0.50852   0.53695   0.10638  -0.55712
O          O       0.46299   0.40874   0.04044  -0.58675
O          O       0.34087   0.91621   0.01269  -0.63243
O          O       0.20807   0.90407   0.06248  -0.48929
O          O       0.48324   0.10394   0.04678  -0.54960
O          O       0.43488   0.17071   0.12216  -0.56058
O          O       0.23016   0.59316   0.26903  -0.56454
O          O       0.17457   0.63871   0.35314  -0.57749
O          O       0.46270   0.97176   0.44039  -0.55580
O          O       0.59104   0.05427   0.37463  -0.58701
O          O       0.08367   0.42508   0.34601  -0.63133
O          O       0.09645   0.30395   0.39406  -0.48907
O          O       0.89590   0.37913   0.38106  -0.54968
O          O       0.82944   0.26419   0.45661  -0.55966
O          O       0.40722   0.63726   0.60317  -0.56549
O          O       0.36165   0.53667   0.68747  -0.57537
O          O       0.02562   0.48957   0.77265  -0.55796
O          O       0.94566   0.53735   0.70611  -0.58421

