data_crystal

_audit_creation_method 'AiiDA-DDEC plugin'

_cell_length_a         8.68735
_cell_length_b        19.38476
_cell_length_c        21.39329

_cell_angle_alpha     90.08083
_cell_angle_beta     90.03661
_cell_angle_gamma     89.95495

_symmetry_space_group_name_Hall 'P 1'
_symmetry_space_group_name_H-M  'P 1'

loop_
_symmetry_equiv_pos_as_xyz
 'x,y,z'

loop_
_atom_site_label
_atom_site_type_symbol
_atom_site_fract_x
_atom_site_fract_y
_atom_site_fract_z
_atom_site_charge
Na         Na      0.12903   0.00006   0.66350   0.90011
Na         Na      0.37109   0.99658   0.16490   0.90081
Na         Na      0.87850   0.50683   0.83815   0.90053
Na         Na      0.64395   0.50334   0.33044   0.90142
Cu         Cu      0.01118   0.08150   0.41168   0.79178
Cu         Cu      0.69910   0.17739   0.36431   0.78380
Cu         Cu      0.48820   0.91828   0.91154   0.78656
Cu         Cu      0.80131   0.82424   0.86478   0.78170
Cu         Cu      0.98927   0.58131   0.08758   0.79339
Cu         Cu      0.30210   0.67614   0.13522   0.78635
Cu         Cu      0.51262   0.41831   0.58834   0.78354
Cu         Cu      0.20030   0.32340   0.63580   0.77923
H          H       0.84164   0.16821   0.46473   0.35936
H          H       0.85175   0.95052   0.56030   0.11476
H          H       0.65266   0.97330   0.63999   0.10032
H          H       0.60102   0.09357   0.67572   0.09891
H          H       0.74659   0.19060   0.62801   0.09532
H          H       0.94709   0.16799   0.54861   0.11609
H          H       0.35278   0.89335   0.48516   0.13529
H          H       0.45669   0.86592   0.37775   0.10463
H          H       0.36042   0.93218   0.28511   0.11964
H          H       0.95199   0.08309   0.20089   0.11343
H          H       0.84370   0.17717   0.13593   0.09992
H          H       0.83819   0.29823   0.17694   0.09306
H          H       0.93104   0.32140   0.28494   0.10181
H          H       0.03443   0.22650   0.35020   0.11595
H          H       0.36247   0.14490   0.17860   0.12852
H          H       0.30068   0.27079   0.16888   0.10861
H          H       0.42710   0.35622   0.24025   0.13056
H          H       0.78427   0.98997   0.24837   0.11605
H          H       0.89583   0.87797   0.28096   0.08759
H          H       0.88599   0.84157   0.39230   0.09825
H          H       0.76195   0.91935   0.47074   0.09825
H          H       0.65779   0.03240   0.43891   0.11764
H          H       0.63653   0.24213   0.50286   0.11439
H          H       0.75943   0.29266   0.59795   0.09721
H          H       0.94721   0.38801   0.58842   0.08493
H          H       0.02115   0.43049   0.48181   0.09609
H          H       0.89673   0.38211   0.38818   0.10712
H          H       0.66020   0.83495   0.96545   0.35724
H          H       0.64925   0.04901   0.06030   0.11599
H          H       0.84776   0.02644   0.14021   0.10049
H          H       0.89870   0.90629   0.17618   0.09932
H          H       0.75303   0.80917   0.12840   0.09460
H          H       0.55323   0.83147   0.04866   0.11740
H          H       0.14779   0.10721   0.98584   0.13445
H          H       0.04320   0.13409   0.87843   0.10583
H          H       0.13883   0.06770   0.78561   0.12157
H          H       0.54755   0.91691   0.70106   0.11426
H          H       0.65600   0.82280   0.63602   0.10019
H          H       0.66241   0.70179   0.67681   0.09467
H          H       0.56943   0.67865   0.78465   0.10292
H          H       0.46547   0.77352   0.85003   0.11773
H          H       0.13873   0.85537   0.67889   0.12727
H          H       0.19815   0.72939   0.66890   0.10999
H          H       0.07214   0.64459   0.74052   0.13046
H          H       0.71674   0.01073   0.74831   0.11716
H          H       0.60377   0.12243   0.78107   0.08961
H          H       0.61297   0.15891   0.89244   0.09824
H          H       0.73666   0.08129   0.97108   0.09819
H          H       0.84232   0.96838   0.93893   0.11420
H          H       0.86343   0.75920   0.00377   0.11265
H          H       0.74112   0.70737   0.09831   0.09620
H          H       0.55408   0.61177   0.08759   0.08509
H          H       0.48139   0.56990   0.98058   0.09778
H          H       0.60513   0.61958   0.88752   0.10901
H          H       0.15744   0.66805   0.03552   0.36095
H          H       0.14940   0.45058   0.93953   0.11544
H          H       0.34846   0.47329   0.85987   0.10117
H          H       0.39905   0.59346   0.82406   0.10035
H          H       0.25297   0.69059   0.87183   0.09541
H          H       0.05239   0.66804   0.95109   0.11460
H          H       0.64655   0.39314   0.01449   0.13481
H          H       0.54456   0.36663   0.12239   0.10744
H          H       0.64271   0.43266   0.21463   0.12053
H          H       0.05196   0.58343   0.29767   0.11394
H          H       0.15683   0.67740   0.36348   0.10087
H          H       0.16097   0.79877   0.32339   0.09469
H          H       0.06906   0.82223   0.21537   0.10276
H          H       0.96706   0.72740   0.14931   0.11449
H          H       0.63512   0.64539   0.32209   0.12470
H          H       0.69781   0.77091   0.33128   0.10960
H          H       0.57308   0.85602   0.25937   0.13052
H          H       0.21624   0.48973   0.25153   0.11820
H          H       0.10416   0.37801   0.21893   0.08946
H          H       0.11348   0.34133   0.10755   0.09821
H          H       0.23740   0.41874   0.02893   0.09867
H          H       0.34188   0.53184   0.06087   0.11770
H          H       0.36326   0.74131   0.99654   0.11528
H          H       0.24106   0.79266   0.90177   0.09794
H          H       0.05376   0.88827   0.91193   0.08457
H          H       0.98000   0.93047   0.01876   0.09715
H          H       0.10367   0.88127   0.11212   0.10778
H          H       0.33801   0.33619   0.53496   0.35651
H          H       0.35191   0.54908   0.43920   0.11396
H          H       0.15223   0.52643   0.35970   0.09924
H          H       0.10072   0.40616   0.32394   0.09811
H          H       0.24641   0.30906   0.37167   0.09360
H          H       0.44665   0.33156   0.45130   0.11791
H          H       0.85220   0.60700   0.51416   0.13382
H          H       0.95652   0.63416   0.62156   0.10435
H          H       0.86107   0.56794   0.71430   0.12104
H          H       0.45414   0.41716   0.79918   0.11310
H          H       0.34460   0.32329   0.86396   0.09924
H          H       0.33775   0.20227   0.82286   0.09303
H          H       0.43084   0.17897   0.71498   0.10208
H          H       0.53528   0.27364   0.64987   0.11814
H          H       0.86131   0.35530   0.82074   0.13068
H          H       0.80205   0.22908   0.83078   0.10802
H          H       0.92766   0.14399   0.75882   0.13004
H          H       0.28318   0.51035   0.75176   0.11467
H          H       0.39568   0.62202   0.71915   0.08818
H          H       0.38643   0.65828   0.60781   0.09820
H          H       0.26278   0.58049   0.52909   0.09873
H          H       0.15736   0.46773   0.56117   0.11517
H          H       0.13692   0.25866   0.49603   0.11253
H          H       0.25977   0.20728   0.40136   0.09610
H          H       0.44671   0.11163   0.41153   0.08558
H          H       0.52044   0.06979   0.51839   0.09662
H          H       0.39615   0.11907   0.61170   0.10747
C          C       0.91206   0.05753   0.54782   0.23947
C          C       0.82757   0.00315   0.57483  -0.20253
C          C       0.71616   0.01624   0.62008  -0.07487
C          C       0.68677   0.08371   0.63981  -0.10421
C          C       0.76835   0.13798   0.61279  -0.07428
C          C       0.87951   0.12539   0.56706  -0.17425
C          C       0.12587   0.99314   0.50942   0.43897
C          C       0.20605   0.97344   0.44989   0.14006
C          C       0.31504   0.92109   0.44376  -0.13777
C          C       0.37142   0.90649   0.38395  -0.01921
C          C       0.31933   0.94360   0.33199  -0.12557
C          C       0.21284   0.99660   0.34182   0.13847
C          C       0.14939   0.04442   0.29277   0.44067
C          C       0.00407   0.14822   0.27946   0.24566
C          C       0.94764   0.13537   0.21874  -0.17064
C          C       0.88781   0.18872   0.18243  -0.08871
C          C       0.88396   0.25641   0.20529  -0.11373
C          C       0.93797   0.26952   0.26568  -0.08969
C          C       0.99612   0.21624   0.30268  -0.20497
C          C       0.71100   0.01915   0.34095   0.24008
C          C       0.78032   0.97460   0.29701  -0.16630
C          C       0.84298   0.91166   0.31557  -0.08860
C          C       0.83709   0.89087   0.37815  -0.12447
C          C       0.76863   0.93461   0.42196  -0.09122
C          C       0.70790  -0.00163   0.40399  -0.19389
C          C       0.57006   0.08941   0.26953   0.44399
C          C       0.51629   0.16178   0.25663   0.13821
C          C       0.41548   0.18266   0.20940  -0.12596
C          C       0.38177   0.25306   0.20418  -0.02542
C          C       0.45083   0.30126   0.24404  -0.13774
C          C       0.54852   0.27663   0.29072   0.13743
C          C       0.63210   0.31930   0.33855   0.44220
C          C       0.75685   0.30948   0.43882   0.25055
C          C       0.72087   0.28352   0.49864  -0.18233
C          C       0.78950   0.31186   0.55181  -0.09815
C          C       0.89649   0.36540   0.54659  -0.13456
C          C       0.93591   0.38981   0.48731  -0.07268
C          C       0.86641   0.36249   0.43395  -0.16412
C          C       0.58871   0.94195   0.04773   0.23845
C          C       0.67321   0.99640   0.07482  -0.19981
C          C       0.78431   0.98346   0.12021  -0.07100
C          C       0.81336   0.91606   0.14008  -0.10567
C          C       0.73185   0.86173   0.11300  -0.07843
C          C       0.62094   0.87414   0.06707  -0.17675
C          C       0.37500   0.00656   0.01008   0.43653
C          C       0.29485   0.02697   0.95059   0.14008
C          C       0.18570   0.07932   0.94448  -0.13623
C          C       0.12885   0.09371   0.88465  -0.02083
C          C       0.18049   0.05660   0.83253  -0.12206
C          C       0.28722   0.00371   0.84237   0.13891
C          C       0.35027   0.95569   0.79325   0.44022
C          C       0.49564   0.85184   0.77957   0.24588
C          C       0.55209   0.86465   0.71888  -0.17317
C          C       0.61206   0.81127   0.68249  -0.08916
C          C       0.61634   0.74359   0.70519  -0.11432
C          C       0.56226   0.73052   0.76551  -0.09091
C          C       0.50366   0.78377   0.80255  -0.20345
C          C       0.78879   0.98164   0.84117   0.23873
C          C       0.72000   0.02601   0.79704  -0.16488
C          C       0.65697   0.08887   0.81565  -0.08572
C          C       0.66235   0.10969   0.87829  -0.12234
C          C       0.73061   0.06612   0.92222  -0.09140
C          C       0.79157   0.00242   0.90421  -0.19689
C          C       0.93180   0.91143   0.77053   0.44265
C          C       0.98625   0.83928   0.75749   0.13752
C          C       0.08599   0.81801   0.71002  -0.12512
C          C       0.11832   0.74750   0.70452  -0.02548
C          C       0.04904   0.69960   0.74444  -0.13544
C          C       0.95244   0.72472   0.79129   0.13663
C          C       0.86878   0.68288   0.83932   0.44302
C          C       0.74377   0.69215   0.93907   0.25540
C          C       0.77983   0.71752  -0.00085  -0.18327
C          C       0.71134   0.68853   0.05195  -0.10344
C          C       0.60480   0.63486   0.04606  -0.13177
C          C       0.56583   0.61084   0.98652  -0.07089
C          C       0.63499   0.63887   0.93352  -0.16434
C          C       0.08803   0.55766   0.95183   0.23429
C          C       0.17298   0.50319   0.92492  -0.20133
C          C       0.28441   0.51621   0.87970  -0.07322
C          C       0.31330   0.58365   0.85993  -0.10482
C          C       0.23142   0.63798   0.88692  -0.07774
C          C       0.12013   0.62544   0.93254  -0.17183
C          C       0.87339   0.49387   0.98958   0.43596
C          C       0.79382   0.47357   0.04912   0.14064
C          C       0.68509   0.42122   0.05567  -0.13297
C          C       0.62990   0.40698   0.11574  -0.02381
C          C       0.68319   0.44402   0.16764  -0.12041
C          C       0.78974   0.49677   0.15734   0.13524
C          C       0.85528   0.54463   0.20592   0.44329
C          C      -0.00122   0.64869   0.21948   0.24473
C          C       0.05524   0.63579   0.28017  -0.17093
C          C       0.11340   0.68916   0.31696  -0.08821
C          C       0.11626   0.75698   0.29462  -0.11265
C          C       0.06268   0.77019   0.23420  -0.08844
C          C       0.00569   0.71690   0.19675  -0.20815
C          C       0.28858   0.51873   0.15880   0.23917
C          C       0.21958   0.47441   0.20282  -0.16482
C          C       0.15695   0.41149   0.18426  -0.08858
C          C       0.16273   0.39056   0.12167  -0.12124
C          C       0.23108   0.43407   0.07776  -0.09501
C          C       0.29179   0.49784   0.09573  -0.19062
C          C       0.43059   0.58911   0.22990   0.43985
C          C       0.48417   0.66143   0.24301   0.13567
C          C       0.58359   0.68271   0.29059  -0.12694
C          C       0.61739   0.75309   0.29573  -0.02491
C          C       0.54908   0.80108   0.25553  -0.13472
C          C       0.45209   0.77603   0.20869   0.13570
C          C       0.36819   0.81797   0.16061   0.44534
C          C       0.24280   0.80840   0.06091   0.25251
C          C       0.27898   0.78278   0.00095  -0.18171
C          C       0.21068   0.81162   0.94800  -0.10179
C          C       0.10407   0.86533   0.95363  -0.13201
C          C       0.06477   0.88956   0.01306  -0.07409
C          C       0.13387   0.86175   0.06624  -0.16349
C          C       0.41164   0.44199   0.45191   0.24372
C          C       0.32743   0.49646   0.42479  -0.19335
C          C       0.21588   0.48346   0.37961  -0.07429
C          C       0.18644   0.41599   0.35989  -0.10712
C          C       0.26790   0.36166   0.38695  -0.07316
C          C       0.37896   0.37415   0.43280  -0.17945
C          C       0.62535   0.50627   0.48957   0.43940
C          C       0.70537   0.52675   0.54926   0.13903
C          C       0.81428   0.57914   0.55546  -0.13848
C          C       0.87103   0.59373   0.61531  -0.02081
C          C       0.81947   0.55677   0.66740  -0.12433
C          C       0.71299   0.50382   0.65764   0.13916
C          C       0.65050   0.45603   0.70707   0.43506
C          C       0.50554   0.35206   0.72053   0.24614
C          C       0.44910   0.36492   0.78125  -0.17254
C          C       0.38868   0.31168   0.81748  -0.08911
C          C       0.38415   0.24400   0.79462  -0.11500
C          C       0.43824   0.23084   0.73425  -0.09070
C          C       0.49711   0.28399   0.69736  -0.20236
C          C       0.21114   0.48107   0.65904   0.23893
C          C       0.27979   0.52561   0.70308  -0.16342
C          C       0.34242   0.58847   0.68453  -0.08894
C          C       0.33686   0.60916   0.62192  -0.12368
C          C       0.26871   0.56546   0.57797  -0.09002
C          C       0.20809   0.50174   0.59597  -0.19793
C          C       0.06760   0.41103   0.72988   0.44412
C          C       0.01452   0.33858   0.74264   0.13943
C          C       0.91431   0.31754   0.78992  -0.12404
C          C       0.88200   0.24704   0.79522  -0.02638
C          C       0.95128   0.19897   0.75524  -0.13776
C          C       0.04882   0.22381   0.70866   0.13840
C          C       0.13239   0.18154   0.66057   0.43846
C          C       0.25618   0.19133   0.56047   0.25350
C          C       0.22034   0.21690   0.50051  -0.18127
C          C       0.28930   0.18819   0.44760  -0.10110
C          C       0.39612   0.13458   0.45321  -0.13289
C          C       0.43528   0.11051   0.51265  -0.07346
C          C       0.36563   0.13824   0.56577  -0.16376
N          N       0.02108   0.04384   0.50074  -0.49703
N          N       0.16064   0.00902   0.39962  -0.28061
N          N       0.06468   0.09625   0.31819  -0.49600
N          N       0.64915   0.08381   0.32397  -0.49312
N          N       0.57429   0.20885   0.29580  -0.28369
N          N       0.68311   0.28002   0.38663  -0.50379
N          N       0.47948   0.95572   0.00075  -0.50026
N          N       0.33985   0.99143   0.90013  -0.28262
N          N       0.43500   0.90377   0.81851  -0.49555
N          N       0.85134   0.91698   0.82460  -0.49644
N          N       0.92778   0.79249   0.79656  -0.28065
N          N       0.81739   0.72213   0.88720  -0.50154
N          N       0.97876   0.54419  -0.00120  -0.49930
N          N       0.84015   0.50906   0.09937  -0.28156
N          N       0.93844   0.59665   0.18052  -0.49324
N          N       0.35064   0.58338   0.17576  -0.48922
N          N       0.42677   0.70826   0.20363  -0.28072
N          N       0.31672   0.77849   0.11283  -0.50767
N          N       0.52059   0.45573   0.49899  -0.49719
N          N       0.66052   0.49138   0.59982  -0.28106
N          N       0.56628   0.40389   0.68177  -0.49401
N          N       0.14919   0.41652   0.67602  -0.49453
N          N       0.07369   0.29162   0.70368  -0.28428
N          N       0.18245   0.22099   0.61255  -0.50066
O          O       0.85247   0.14940   0.42288  -0.85331
O          O       0.15922   0.96167   0.55913  -0.59262
O          O       0.18146   0.03434   0.23614  -0.57213
O          O       0.53871   0.04229   0.23137  -0.58944
O          O       0.64422   0.38316   0.33008  -0.57930
O          O       0.64033   0.84751   0.92228  -0.84760
O          O       0.34181   0.03728   0.06029  -0.58587
O          O       0.31806   0.96562   0.73666  -0.57065
O          O       0.96247   0.95860   0.73262  -0.58498
O          O       0.85655   0.61896   0.83145  -0.59507
O          O       0.15148   0.64671   0.07636  -0.85581
O          O       0.83978   0.46343   0.93935  -0.58645
O          O       0.82618   0.53437   0.26274  -0.58705
O          O       0.46246   0.54192   0.26774  -0.58774
O          O       0.35578   0.88192   0.16844  -0.59039
O          O       0.36064   0.34747   0.57821  -0.84503
O          O       0.65864   0.53660   0.43923  -0.59057
O          O       0.68256   0.46628   0.76363  -0.55863
O          O       0.03407   0.45813   0.76771  -0.58687
O          O       0.14510   0.11763   0.66878  -0.58364

