data_crystal

_audit_creation_method 'AiiDA-DDEC plugin'

_cell_length_a        11.87626
_cell_length_b        18.27242
_cell_length_c        18.27242

_cell_angle_alpha     90.05499
_cell_angle_beta     89.86112
_cell_angle_gamma     90.13888

_symmetry_space_group_name_Hall 'P 1'
_symmetry_space_group_name_H-M  'P 1'

loop_
_symmetry_equiv_pos_as_xyz
 'x,y,z'

loop_
_atom_site_label
_atom_site_type_symbol
_atom_site_fract_x
_atom_site_fract_y
_atom_site_fract_z
_atom_site_charge
Ni         Ni      0.15949   0.54278   0.94205   1.04288
Ni         Ni      0.93751   0.59266   0.87609   0.92350
Ni         Ni      0.65782   0.45765   0.05793   1.04613
Ni         Ni      0.43530   0.40729   0.12413   0.92358
Ni         Ni      0.90861   0.55788   0.04270   1.04282
Ni         Ni      0.68601   0.62416   0.09280   0.92320
Ni         Ni      0.41005   0.44237   0.95738   1.04248
Ni         Ni      0.18837   0.37630   0.90728   0.92206
Ni         Ni      0.58996   0.95738   0.44237   1.04247
Ni         Ni      0.81163   0.90728   0.37630   0.92213
Ni         Ni      0.09138   0.04270   0.55788   1.04286
Ni         Ni      0.31399   0.09279   0.62416   0.92325
Ni         Ni      0.84051   0.94205   0.54278   1.04286
Ni         Ni      0.06249   0.87609   0.59265   0.92339
Ni         Ni      0.34218   0.05793   0.45766   1.04623
Ni         Ni      0.56470   0.12413   0.40729   0.92364
Ni         Ni      0.00001   0.74076   0.74071   0.84843
Ni         Ni      0.50000   0.25791   0.25791   0.85250
Ni         Ni      0.74892   0.75799   0.24343   0.85120
Ni         Ni      0.25108   0.24342   0.75799   0.85124
H          H       0.92210   0.56362   0.74177   0.30394
H          H       0.79356   0.55322   0.76605   0.30361
H          H       0.10958   0.82881   0.83340   0.29074
H          H       0.16695   0.83351   0.75057   0.29010
H          H       0.89595   0.43340   0.74266   0.08215
H          H       0.82199   0.36871   0.84807   0.14511
H          H       0.72237   0.43474   0.82073   0.15135
H          H       0.27096   0.76066   0.85397   0.07680
H          H       0.35059   0.76225   0.73407   0.11554
H          H       0.33526   0.66965   0.75814   0.14260
H          H       0.29982   0.49314   0.85267   0.40618
H          H       0.41965   0.43616   0.25824   0.30436
H          H       0.29081   0.44597   0.23456   0.30432
H          H       0.60952   0.16944   0.16519   0.29032
H          H       0.66689   0.16626   0.24790   0.28934
H          H       0.39302   0.56655   0.25764   0.08211
H          H       0.32056   0.63104   0.15234   0.14460
H          H       0.22018   0.56476   0.17887   0.15100
H          H       0.76857   0.23989   0.14267   0.07716
H          H       0.85061   0.23795   0.26200   0.11594
H          H       0.83393   0.33064   0.23858   0.14281
H          H       0.79671   0.50704   0.14735   0.40668
H          H       0.67090   0.75834   0.06405   0.30517
H          H       0.54196   0.73430   0.05421   0.30467
H          H       0.85738   0.66446   0.33003   0.29018
H          H       0.91564   0.74714   0.33479   0.28987
H          H       0.64492   0.75764   0.93377   0.08144
H          H       0.57172   0.65226   0.86886   0.14421
H          H       0.47132   0.67915   0.93490   0.15131
H          H       0.01756   0.64262   0.26100   0.07790
H          H       0.10022   0.76210   0.26419   0.11449
H          H       0.08583   0.73847   0.17147   0.14291
H          H       0.04844   0.64734   0.99350   0.40729
H          H       0.16993   0.24194   0.93522   0.30574
H          H       0.04188   0.26728   0.94536   0.30563
H          H       0.36190   0.33586   0.66945   0.29076
H          H       0.41771   0.25268   0.66569   0.28912
H          H       0.14390   0.24281   0.06549   0.08315
H          H       0.07085   0.34796   0.13067   0.14358
H          H       0.97097   0.32066   0.06462   0.15067
H          H       0.52137   0.35747   0.73881   0.07783
H          H       0.60154   0.23744   0.73514   0.11504
H          H       0.58797   0.26112   0.82798   0.14324
H          H       0.54759   0.35257   0.00710   0.40895
H          H       0.83007   0.93522   0.24195   0.30566
H          H       0.95812   0.94536   0.26729   0.30568
H          H       0.63810   0.66945   0.33586   0.29080
H          H       0.58229   0.66569   0.25268   0.28913
H          H       0.85610   0.06548   0.24281   0.08316
H          H       0.92914   0.13066   0.34796   0.14356
H          H       0.02902   0.06462   0.32066   0.15067
H          H       0.47863   0.73881   0.35747   0.07790
H          H       0.39846   0.73514   0.23744   0.11513
H          H       0.41203   0.82798   0.26112   0.14322
H          H       0.45241   0.00710   0.35257   0.40898
H          H       0.32910   0.06405   0.75834   0.30520
H          H       0.45804   0.05421   0.73430   0.30449
H          H       0.14261   0.33003   0.66446   0.29010
H          H       0.08436   0.33479   0.74714   0.28983
H          H       0.35509   0.93377   0.75764   0.08156
H          H       0.42828   0.86886   0.65226   0.14427
H          H       0.52868   0.93490   0.67916   0.15130
H          H       0.98244   0.26100   0.64262   0.07772
H          H       0.89978   0.26418   0.76210   0.11446
H          H       0.91417   0.17147   0.73848   0.14302
H          H       0.95156   0.99349   0.64734   0.40742
H          H       0.07790   0.74176   0.56362   0.30403
H          H       0.20644   0.76604   0.55323   0.30365
H          H       0.89043   0.83339   0.82881   0.29065
H          H       0.83304   0.75056   0.83352   0.29016
H          H       0.10406   0.74266   0.43340   0.08213
H          H       0.17801   0.84807   0.36871   0.14494
H          H       0.27763   0.82072   0.43474   0.15132
H          H       0.72905   0.85397   0.76066   0.07666
H          H       0.64941   0.73407   0.76225   0.11556
H          H       0.66475   0.75813   0.66965   0.14251
H          H       0.70018   0.85267   0.49314   0.40624
H          H       0.58035   0.25824   0.43616   0.30437
H          H       0.70919   0.23456   0.44597   0.30421
H          H       0.39047   0.16519   0.16944   0.29035
H          H       0.33311   0.24790   0.16626   0.28931
H          H       0.60698   0.25764   0.56655   0.08207
H          H       0.67944   0.15234   0.63104   0.14463
H          H       0.77982   0.17887   0.56476   0.15084
H          H       0.23143   0.14267   0.23989   0.07722
H          H       0.14939   0.26200   0.23795   0.11600
H          H       0.16607   0.23858   0.33064   0.14291
H          H       0.20329   0.14735   0.50704   0.40667
C          C       0.01311   0.45546   0.82905   0.58087
C          C       0.89609   0.46368   0.79486   0.07386
C          C       0.80672   0.42799   0.84477  -0.34402
C          C       0.79954   0.45608   0.92331   0.66037
C          C       0.15217   0.67535   0.84322   0.58620
C          C       0.21447   0.74130   0.81040   0.06994
C          C       0.28757   0.71932   0.74449  -0.35166
C          C       0.22657   0.70569   0.67152   0.62592
C          C       0.51064   0.54456   0.17130   0.58037
C          C       0.39347   0.53612   0.20554   0.07200
C          C       0.30506   0.57173   0.15537  -0.34295
C          C       0.29934   0.54410   0.07667   0.66062
C          C       0.64989   0.32457   0.15587   0.57920
C          C       0.71297   0.25842   0.18715   0.07074
C          C       0.78710   0.28048   0.25234  -0.35175
C          C       0.72672   0.29339   0.32567   0.62044
C          C       0.76180   0.67125   0.95554   0.58045
C          C       0.64481   0.70553   0.96402   0.07311
C          C       0.55600   0.65548   0.92816  -0.34296
C          C       0.54947   0.57687   0.95587   0.66313
C          C       0.90038   0.65605   0.17568   0.58445
C          C       0.96265   0.68715   0.24229   0.06875
C          C       0.03761   0.75234   0.22105  -0.35030
C          C       0.97752   0.82548   0.20747   0.62067
C          C       0.26186   0.32893   0.04425   0.57820
C          C       0.14451   0.29502   0.03542   0.07206
C          C       0.05546   0.34477   0.07140  -0.34309
C          C       0.04876   0.42339   0.04384   0.66247
C          C       0.40342   0.34424   0.82432   0.58461
C          C       0.46562   0.31312   0.75757   0.06697
C          C       0.53935   0.24756   0.77860  -0.35139
C          C       0.47804   0.17460   0.79221   0.62804
C          C       0.73813   0.04425   0.32893   0.57824
C          C       0.85549   0.03542   0.29502   0.07198
C          C       0.94453   0.07139   0.34477  -0.34317
C          C       0.95124   0.04384   0.42339   0.66258
C          C       0.59658   0.82432   0.34424   0.58485
C          C       0.53438   0.75757   0.31312   0.06694
C          C       0.46065   0.77860   0.24756  -0.35149
C          C       0.52196   0.79221   0.17460   0.62824
C          C       0.23820   0.95554   0.67126   0.58046
C          C       0.35520   0.96402   0.70553   0.07318
C          C       0.44400   0.92816   0.65548  -0.34285
C          C       0.45053   0.95587   0.57687   0.66319
C          C       0.09962   0.17568   0.65605   0.58459
C          C       0.03734   0.24229   0.68716   0.06890
C          C       0.96238   0.22104   0.75234  -0.35032
C          C       0.02248   0.20747   0.82548   0.62057
C          C       0.98689   0.82905   0.45547   0.58096
C          C       0.10391   0.79486   0.46368   0.07384
C          C       0.19328   0.84476   0.42800  -0.34380
C          C       0.20046   0.92331   0.45608   0.66012
C          C       0.84783   0.84321   0.67535   0.58618
C          C       0.78554   0.81040   0.74131   0.07004
C          C       0.71244   0.74449   0.71933  -0.35158
C          C       0.77343   0.67151   0.70569   0.62583
C          C       0.48936   0.17129   0.54456   0.58033
C          C       0.60653   0.20554   0.53612   0.07195
C          C       0.69494   0.15537   0.57173  -0.34284
C          C       0.70065   0.07667   0.54410   0.66059
C          C       0.35011   0.15587   0.32457   0.57911
C          C       0.28703   0.18715   0.25842   0.07094
C          C       0.21290   0.25234   0.28048  -0.35185
C          C       0.27328   0.32567   0.29339   0.62037
N          N       0.87465   0.54229   0.78388  -0.61382
N          N       0.13292   0.79845   0.78895  -0.60389
N          N       0.37184   0.45747   0.21654  -0.61288
N          N       0.63257   0.20052   0.20917  -0.60282
N          N       0.62304   0.71650   0.04269  -0.61446
N          N       0.88136   0.70883   0.29983  -0.60386
N          N       0.12336   0.28427   0.95671  -0.61534
N          N       0.38419   0.29163   0.70023  -0.60230
N          N       0.87664   0.95671   0.28427  -0.61532
N          N       0.61581   0.70023   0.29163  -0.60227
N          N       0.37696   0.04269   0.71650  -0.61437
N          N       0.11864   0.29983   0.70884  -0.60392
N          N       0.12535   0.78387   0.54229  -0.61385
N          N       0.86708   0.78894   0.79846  -0.60384
N          N       0.62816   0.21654   0.45747  -0.61290
N          N       0.36743   0.20917   0.20052  -0.60301
O          O       0.05795   0.51481   0.85212  -0.55101
O          O       0.05733   0.39257   0.83337  -0.53372
O          O       0.73794   0.42003   0.96647  -0.54203
O          O       0.85559   0.51400   0.94101  -0.58845
O          O       0.04564   0.67014   0.82937  -0.56877
O          O       0.21120   0.63302   0.88163  -0.53863
O          O       0.11836   0.69713   0.67105  -0.58851
O          O       0.28754   0.70388   0.61543  -0.57192
O          O       0.27445   0.47412   0.89954  -0.90016
O          O       0.55519   0.48536   0.14791  -0.55090
O          O       0.55496   0.60757   0.16693  -0.53370
O          O       0.24001   0.58100   0.03322  -0.54303
O          O       0.35390   0.48570   0.05905  -0.58827
O          O       0.54351   0.32961   0.17045  -0.56476
O          O       0.70883   0.36759   0.11789  -0.53662
O          O       0.61823   0.30019   0.32662  -0.58804
O          O       0.78840   0.29624   0.38122  -0.56865
O          O       0.77203   0.52619   0.10049  -0.90122
O          O       0.80619   0.64787   0.01468  -0.55046
O          O       0.80621   0.66669   0.89254  -0.53469
O          O       0.49076   0.53315   0.91865  -0.54362
O          O       0.60257   0.55929   0.01470  -0.59062
O          O       0.79419   0.67053   0.17044  -0.56720
O          O       0.95968   0.61818   0.13275  -0.53858
O          O       0.86904   0.82609   0.20015  -0.58854
O          O       0.03933   0.88114   0.20437  -0.56957
O          O       0.02341   0.60055   0.97408  -0.90072
O          O       0.30817   0.35193   0.98532  -0.54880
O          O       0.30499   0.33317   0.10750  -0.53275
O          O       0.98872   0.46665   0.08079  -0.54326
O          O       0.10332   0.44107   0.98536  -0.58896
O          O       0.29703   0.32970   0.82976  -0.56745
O          O       0.46258   0.38203   0.86729  -0.53555
O          O       0.36975   0.17408   0.80006  -0.59126
O          O       0.53878   0.11865   0.79473  -0.57148
O          O       0.52289   0.39949   0.02622  -0.90226
O          O       0.69184   0.98532   0.35193  -0.54884
O          O       0.69501   0.10750   0.33317  -0.53282
O          O       0.01128   0.08079   0.46665  -0.54341
O          O       0.89668   0.98536   0.44107  -0.58896
O          O       0.70297   0.82976   0.32970  -0.56760
O          O       0.53742   0.86729   0.38204  -0.53558
O          O       0.63024   0.80006   0.17408  -0.59140
O          O       0.46121   0.79472   0.11866  -0.57167
O          O       0.47711   0.02621   0.39949  -0.90237
O          O       0.19381   0.01468   0.64787  -0.55067
O          O       0.19379   0.89253   0.66669  -0.53455
O          O       0.50924   0.91864   0.53315  -0.54366
O          O       0.39744   0.01470   0.55929  -0.59077
O          O       0.20581   0.17044   0.67053  -0.56735
O          O       0.04032   0.13275   0.61818  -0.53856
O          O       0.13096   0.20015   0.82609  -0.58845
O          O       0.96067   0.20437   0.88114  -0.56943
O          O       0.97659   0.97408   0.60056  -0.90078
O          O       0.94206   0.85211   0.51481  -0.55091
O          O       0.94267   0.83336   0.39257  -0.53394
O          O       0.26206   0.96647   0.42003  -0.54204
O          O       0.14441   0.94101   0.51401  -0.58827
O          O       0.95436   0.82937   0.67014  -0.56849
O          O       0.78880   0.88163   0.63303  -0.53873
O          O       0.88164   0.67104   0.69714  -0.58870
O          O       0.71246   0.61543   0.70388  -0.57180
O          O       0.72555   0.89954   0.47412  -0.90010
O          O       0.44481   0.14791   0.48536  -0.55093
O          O       0.44504   0.16693   0.60757  -0.53360
O          O       0.75999   0.03321   0.58100  -0.54301
O          O       0.64610   0.05905   0.48570  -0.58820
O          O       0.45649   0.17045   0.32961  -0.56490
O          O       0.29117   0.11789   0.36759  -0.53644
O          O       0.38177   0.32662   0.30019  -0.58803
O          O       0.21160   0.38122   0.29625  -0.56861
O          O       0.22797   0.10049   0.52619  -0.90131

