data_crystal

_audit_creation_method 'AiiDA-DDEC plugin'

_cell_length_a         9.44774
_cell_length_b        12.17558
_cell_length_c        29.15646

_cell_angle_alpha     90.00000
_cell_angle_beta     90.00000
_cell_angle_gamma     90.00000

_symmetry_space_group_name_Hall 'P 1'
_symmetry_space_group_name_H-M  'P 1'

loop_
_symmetry_equiv_pos_as_xyz
 'x,y,z'

loop_
_atom_site_label
_atom_site_type_symbol
_atom_site_fract_x
_atom_site_fract_y
_atom_site_fract_z
_atom_site_charge
Cd         Cd      0.50142   0.84638   0.02646   0.90285
Cd         Cd      0.50142   0.15362   0.97354   0.90278
Cd         Cd      0.00142   0.84638   0.47354   0.90279
Cd         Cd      0.00142   0.15362   0.52646   0.90290
H          H       0.74564   0.51681   0.08520   0.10696
H          H       0.80165   0.37773   0.14693   0.11894
H          H       0.56660   0.57261   0.24395   0.12097
H          H       0.50890   0.70632   0.18178   0.12040
H          H       0.74168   0.48039   0.29002   0.08196
H          H       0.57683   0.41178   0.28079   0.07568
H          H       0.70219   0.03148   0.31710   0.11508
H          H       0.91721   0.05594   0.36554   0.11157
H          H       0.02523   0.24073   0.37364   0.09843
H          H       0.91776   0.40044   0.33365   0.09439
H          H       0.58913   0.17065   0.23232   0.10085
H          H       0.48872   0.25666   0.26870   0.07473
H          H       0.48377   0.24178   0.34875   0.11601
H          H       0.29308   0.94267   0.29923   0.13356
H          H       0.33452   0.23144   0.41854   0.10285
H          H       0.14021   0.93509   0.36925   0.11646
H          H       0.55775   0.62883   0.95872   0.10008
H          H       0.42150   0.47729   0.92052   0.11970
H          H       0.15621   0.47651   0.92720   0.12180
H          H       0.93794   0.56145   0.96065   0.11509
H          H       0.82654   0.70794   0.00819   0.14135
H          H       0.84958   0.88206   0.05208   0.12365
H          H       0.00711   0.02859   0.08493   0.11286
H          H       0.26907   0.01792   0.06987   0.10069
H          H       0.74564   0.48320   0.91480   0.10689
H          H       0.80164   0.62227   0.85306   0.11896
H          H       0.56660   0.42739   0.75605   0.12103
H          H       0.50890   0.29369   0.81822   0.12035
H          H       0.74168   0.51961   0.70998   0.08189
H          H       0.57683   0.58822   0.71921   0.07567
H          H       0.70219   0.96852   0.68290   0.11514
H          H       0.91721   0.94407   0.63445   0.11165
H          H       0.02523   0.75927   0.62636   0.09846
H          H       0.91776   0.59956   0.66635   0.09425
H          H       0.58913   0.82936   0.76768   0.10084
H          H       0.48872   0.74334   0.73130   0.07469
H          H       0.48377   0.75822   0.65125   0.11599
H          H       0.29308   0.05733   0.70077   0.13357
H          H       0.33452   0.76856   0.58146   0.10283
H          H       0.14021   0.06491   0.63075   0.11649
H          H       0.55775   0.37117   0.04128   0.10010
H          H       0.42150   0.52271   0.07948   0.11969
H          H       0.15621   0.52349   0.07280   0.12180
H          H       0.93794   0.43855   0.03935   0.11509
H          H       0.82654   0.29206   0.99181   0.14140
H          H       0.84958   0.11794   0.94792   0.12362
H          H       0.00711   0.97142   0.91507   0.11284
H          H       0.26907   0.98208   0.93012   0.10068
H          H       0.24564   0.51681   0.41480   0.10689
H          H       0.30165   0.37773   0.35307   0.11893
H          H       0.06660   0.57261   0.25605   0.12100
H          H       0.00890   0.70632   0.31822   0.12040
H          H       0.24168   0.48039   0.20998   0.08196
H          H       0.07683   0.41178   0.21921   0.07565
H          H       0.20219   0.03148   0.18290   0.11507
H          H       0.41721   0.05594   0.13446   0.11163
H          H       0.52523   0.24073   0.12636   0.09843
H          H       0.41776   0.40044   0.16635   0.09442
H          H       0.08913   0.17065   0.26768   0.10083
H          H       0.98872   0.25666   0.23130   0.07474
H          H       0.98377   0.24178   0.15125   0.11597
H          H       0.79308   0.94267   0.20077   0.13354
H          H       0.83452   0.23144   0.08146   0.10287
H          H       0.64021   0.93509   0.13075   0.11649
H          H       0.05776   0.62883   0.54128   0.10010
H          H       0.92150   0.47729   0.57948   0.11957
H          H       0.65620   0.47651   0.57280   0.12174
H          H       0.43794   0.56145   0.53935   0.11494
H          H       0.32654   0.70794   0.49181   0.14130
H          H       0.34958   0.88206   0.44792   0.12365
H          H       0.50711   0.02859   0.41507   0.11286
H          H       0.76907   0.01792   0.43013   0.10069
H          H       0.24564   0.48320   0.58520   0.10705
H          H       0.30165   0.62227   0.64693   0.11897
H          H       0.06660   0.42739   0.74395   0.12094
H          H       0.00890   0.29369   0.68178   0.12035
H          H       0.24168   0.51961   0.79002   0.08183
H          H       0.07683   0.58822   0.78078   0.07566
H          H       0.20219   0.96852   0.81710   0.11516
H          H       0.41721   0.94407   0.86554   0.11160
H          H       0.52523   0.75927   0.87364   0.09836
H          H       0.41776   0.59956   0.83365   0.09434
H          H       0.08913   0.82936   0.73232   0.10097
H          H       0.98872   0.74334   0.76870   0.07468
H          H       0.98377   0.75822   0.84875   0.11594
H          H       0.79308   0.05733   0.79923   0.13367
H          H       0.83452   0.76856   0.91854   0.10280
H          H       0.64021   0.06491   0.86925   0.11651
H          H       0.05776   0.37117   0.45872   0.10007
H          H       0.92150   0.52271   0.42052   0.11968
H          H       0.65620   0.52349   0.42720   0.12185
H          H       0.43794   0.43855   0.46065   0.11512
H          H       0.32654   0.29206   0.50819   0.14133
H          H       0.34958   0.11794   0.55208   0.12364
H          H       0.50711   0.97142   0.58493   0.11284
H          H       0.76907   0.98208   0.56987   0.10060
C          C       0.59028   0.69868   0.09257   0.53684
C          C       0.62470   0.61959   0.12997  -0.07059
C          C       0.70786   0.52690   0.12020  -0.08458
C          C       0.73973   0.45099   0.15403  -0.21497
C          C       0.69008   0.46761   0.19897   0.25699
C          C       0.60662   0.55959   0.20943  -0.24367
C          C       0.57413   0.63463   0.17469  -0.07283
C          C       0.69261   0.40405   0.27760  -0.02043
C          C       0.74973   0.30637   0.30292   0.01260
C          C       0.68849   0.20139   0.29791   0.02894
C          C       0.75011   0.11218   0.32070  -0.13578
C          C       0.87052   0.12584   0.34789  -0.07635
C          C       0.93082   0.22987   0.35284  -0.08747
C          C       0.87044   0.31932   0.33032  -0.14057
C          C       0.55885   0.18459   0.26821  -0.02279
C          C       0.39746   0.09235   0.31928   0.25888
C          C       0.40819   0.17525   0.35264  -0.23449
C          C       0.30053   0.00575   0.32557  -0.20297
C          C       0.32442   0.16949   0.39189  -0.07980
C          C       0.21559   0.00205   0.36458  -0.07538
C          C       0.22770   0.08365   0.39860  -0.07601
C          C       0.13942   0.08195   0.44100   0.56271
C          C       0.44258   0.62662   0.96000   0.11200
C          C       0.36544   0.54167   0.93889  -0.12242
C          C       0.21956   0.54170   0.94252  -0.08325
C          C       0.15105   0.62586   0.96750   0.04210
C          C       0.00139   0.62750   0.97521  -0.14152
C          C       0.93966   0.70792   0.00115  -0.10984
C          C       0.02336   0.79481   0.02036   0.04256
C          C       0.96352   0.88077   0.04659  -0.05441
C          C       0.05027   0.96157   0.06462  -0.12852
C          C       0.19663   0.95617   0.05641   0.10754
C          C       0.17236   0.79623   0.01357   0.10957
C          C       0.23767   0.70913   0.98715   0.11494
C          C       0.59028   0.30132   0.90743   0.53703
C          C       0.62469   0.38041   0.87003  -0.07060
C          C       0.70786   0.47311   0.87980  -0.08469
C          C       0.73973   0.54901   0.84597  -0.21487
C          C       0.69008   0.53239   0.80103   0.25689
C          C       0.60662   0.44041   0.79057  -0.24366
C          C       0.57413   0.36537   0.82531  -0.07274
C          C       0.69261   0.59595   0.72240  -0.02035
C          C       0.74973   0.69363   0.69708   0.01248
C          C       0.68849   0.79862   0.70209   0.02915
C          C       0.75011   0.88782   0.67930  -0.13582
C          C       0.87052   0.87416   0.65211  -0.07625
C          C       0.93082   0.77014   0.64716  -0.08748
C          C       0.87044   0.68068   0.66968  -0.14045
C          C       0.55885   0.81542   0.73179  -0.02310
C          C       0.39746   0.90766   0.68072   0.25904
C          C       0.40819   0.82475   0.64736  -0.23458
C          C       0.30053   0.99426   0.67442  -0.20320
C          C       0.32442   0.83052   0.60811  -0.07977
C          C       0.21559  -0.00205   0.63542  -0.07513
C          C       0.22770   0.91635   0.60140  -0.07605
C          C       0.13942   0.91805   0.55900   0.56261
C          C       0.44258   0.37338   0.04000   0.11199
C          C       0.36544   0.45833   0.06111  -0.12238
C          C       0.21956   0.45830   0.05748  -0.08324
C          C       0.15105   0.37414   0.03250   0.04206
C          C       0.00139   0.37250   0.02478  -0.14160
C          C       0.93965   0.29208  -0.00115  -0.10986
C          C       0.02336   0.20519   0.97964   0.04258
C          C       0.96352   0.11923   0.95341  -0.05432
C          C       0.05027   0.03844   0.93538  -0.12854
C          C       0.19663   0.04383   0.94359   0.10753
C          C       0.17236   0.20377   0.98643   0.10943
C          C       0.23767   0.29087   0.01285   0.11506
C          C       0.09028   0.69868   0.40743   0.53680
C          C       0.12470   0.61959   0.37003  -0.07058
C          C       0.20786   0.52690   0.37980  -0.08460
C          C       0.23973   0.45099   0.34597  -0.21491
C          C       0.19008   0.46761   0.30103   0.25697
C          C       0.10662   0.55959   0.29057  -0.24368
C          C       0.07413   0.63463   0.32531  -0.07281
C          C       0.19262   0.40405   0.22240  -0.02031
C          C       0.24973   0.30637   0.19708   0.01247
C          C       0.18849   0.20138   0.20209   0.02916
C          C       0.25011   0.11218   0.17930  -0.13582
C          C       0.37052   0.12584   0.15211  -0.07640
C          C       0.43082   0.22987   0.14716  -0.08733
C          C       0.37044   0.31932   0.16968  -0.14062
C          C       0.05885   0.18459   0.23179  -0.02298
C          C       0.89746   0.09235   0.18072   0.25899
C          C       0.90819   0.17525   0.14736  -0.23444
C          C       0.80053   0.00575   0.17442  -0.20308
C          C       0.82442   0.16949   0.10811  -0.07977
C          C       0.71559   0.00205   0.13542  -0.07534
C          C       0.72770   0.08365   0.10140  -0.07608
C          C       0.63942   0.08195   0.05900   0.56265
C          C       0.94258   0.62662   0.54000   0.11194
C          C       0.86544   0.54167   0.56111  -0.12246
C          C       0.71955   0.54170   0.55748  -0.08317
C          C       0.65105   0.62586   0.53250   0.04208
C          C       0.50138   0.62750   0.52478  -0.14152
C          C       0.43966   0.70792   0.49885  -0.10962
C          C       0.52336   0.79481   0.47964   0.04260
C          C       0.46353   0.88077   0.45341  -0.05446
C          C       0.55028   0.96157   0.43538  -0.12838
C          C       0.69663   0.95617   0.44359   0.10754
C          C       0.67236   0.79623   0.48643   0.10945
C          C       0.73767   0.70913   0.51285   0.11500
C          C       0.09028   0.30132   0.59257   0.53698
C          C       0.12470   0.38041   0.62997  -0.07061
C          C       0.20786   0.47311   0.62020  -0.08461
C          C       0.23973   0.54901   0.65403  -0.21488
C          C       0.19008   0.53239   0.69897   0.25689
C          C       0.10662   0.44041   0.70943  -0.24368
C          C       0.07413   0.36537   0.67469  -0.07290
C          C       0.19262   0.59595   0.77760  -0.02051
C          C       0.24973   0.69363   0.80292   0.01266
C          C       0.18849   0.79862   0.79791   0.02898
C          C       0.25011   0.88782   0.82069  -0.13582
C          C       0.37052   0.87416   0.84789  -0.07625
C          C       0.43082   0.77014   0.85284  -0.08745
C          C       0.37044   0.68068   0.83032  -0.14062
C          C       0.05885   0.81542   0.76821  -0.02296
C          C       0.89746   0.90766   0.81927   0.25884
C          C       0.90819   0.82475   0.85263  -0.23450
C          C       0.80053   0.99426   0.82557  -0.20296
C          C       0.82442   0.83052   0.89189  -0.07988
C          C       0.71559  -0.00205   0.86458  -0.07533
C          C       0.72770   0.91635   0.89860  -0.07599
C          C       0.63942   0.91805   0.94099   0.56272
C          C       0.94258   0.37338   0.46000   0.11194
C          C       0.86544   0.45833   0.43889  -0.12228
C          C       0.71955   0.45830   0.44252  -0.08326
C          C       0.65105   0.37414   0.46750   0.04212
C          C       0.50138   0.37250   0.47522  -0.14148
C          C       0.43966   0.29208   0.50115  -0.10975
C          C       0.52336   0.20519   0.52036   0.04255
C          C       0.46353   0.11923   0.54659  -0.05442
C          C       0.55028   0.03844   0.56462  -0.12855
C          C       0.69663   0.04383   0.55640   0.10754
C          C       0.67236   0.20377   0.51357   0.10965
C          C       0.73767   0.29087   0.48715   0.11493
N          N       0.38054   0.70804   0.98296  -0.27169
N          N       0.25583   0.87612   0.03171  -0.26771
N          N       0.38054   0.29196   0.01704  -0.27179
N          N       0.25583   0.12389   0.96829  -0.26761
N          N       0.88054   0.70804   0.51704  -0.27165
N          N       0.75583   0.87612   0.46829  -0.26765
N          N       0.88054   0.29196   0.48296  -0.27176
N          N       0.75583   0.12389   0.53171  -0.26779
O          O       0.17794   0.14428   0.47416  -0.54892
O          O       0.64267   0.68286   0.05287  -0.57716
O          O       0.02836   0.02212   0.44216  -0.59564
O          O       0.50692   0.77894   0.10181  -0.56646
O          O       0.72927   0.38828   0.22962  -0.20705
O          O       0.47729   0.08832   0.28013  -0.19926
O          O       0.17794   0.85572   0.52584  -0.54876
O          O       0.64267   0.31714   0.94713  -0.57735
O          O       0.02836   0.97788   0.55784  -0.59564
O          O       0.50692   0.22106   0.89819  -0.56654
O          O       0.72927   0.61173   0.77038  -0.20693
O          O       0.47729   0.91168   0.71987  -0.19925
O          O       0.67794   0.14428   0.02584  -0.54885
O          O       0.14267   0.68286   0.44713  -0.57720
O          O       0.52836   0.02212   0.05784  -0.59560
O          O       0.00691   0.77894   0.39819  -0.56637
O          O       0.22928   0.38828   0.27038  -0.20704
O          O       0.97729   0.08832   0.21987  -0.19937
O          O       0.67794   0.85572   0.97416  -0.54911
O          O       0.14267   0.31714   0.55287  -0.57710
O          O       0.52836   0.97788   0.94215  -0.59554
O          O       0.00691   0.22106   0.60181  -0.56668
O          O       0.22928   0.61173   0.72962  -0.20684
O          O       0.97729   0.91168   0.78013  -0.19911

