data_crystal

_audit_creation_method 'AiiDA-DDEC plugin'

_cell_length_a         9.66639
_cell_length_b        19.52893
_cell_length_c        25.55971

_cell_angle_alpha     90.00000
_cell_angle_beta     90.01794
_cell_angle_gamma     90.00000

_symmetry_space_group_name_Hall 'P 1'
_symmetry_space_group_name_H-M  'P 1'

loop_
_symmetry_equiv_pos_as_xyz
 'x,y,z'

loop_
_atom_site_label
_atom_site_type_symbol
_atom_site_fract_x
_atom_site_fract_y
_atom_site_fract_z
_atom_site_charge
Cu         Cu      0.39312   0.44910   0.52551   1.09047
Cu         Cu      0.19287   0.55491   0.56649   1.07313
Cu         Cu      0.10688   0.44910   0.47449   1.09052
Cu         Cu      0.30713   0.55491   0.43351   1.07316
Cu         Cu      0.10691   0.05164   0.02561   1.08896
Cu         Cu      0.30628   0.94531   0.06643   1.07103
Cu         Cu      0.39309   0.05163   0.97439   1.08889
Cu         Cu      0.19372   0.94531   0.93357   1.07107
Cu         Cu      0.60689   0.55090   0.47449   1.09053
Cu         Cu      0.80713   0.44509   0.43351   1.07317
Cu         Cu      0.89312   0.55090   0.52551   1.09050
Cu         Cu      0.69287   0.44509   0.56649   1.07319
Cu         Cu      0.89309   0.94837   0.97439   1.08893
Cu         Cu      0.69372   0.05469   0.93357   1.07109
Cu         Cu      0.60692   0.94837   0.02561   1.08894
Cu         Cu      0.80628   0.05469   0.06643   1.07100
H          H       0.17720   0.18142   0.54155   0.10720
H          H       0.07114   0.07624   0.50435   0.10203
H          H       0.04263   0.97220   0.56011   0.11443
H          H       0.24153   0.07576   0.68787   0.12079
H          H       0.26280   0.18112   0.63328   0.10718
H          H       0.33828   0.93053   0.59799   0.10809
H          H       0.39868   0.81683   0.56075   0.10730
H          H       0.04341   0.72827   0.63489   0.11796
H          H       0.98103   0.84166   0.67240   0.11408
H          H       0.16228   0.87434   0.74042   0.12443
H          H       0.07255   0.88973   0.83024   0.12213
H          H       0.85713   0.07134   0.78167   0.11755
H          H       0.94959   0.05806   0.69192   0.11646
H          H       0.15847   0.42326   0.57299   0.43319
H          H       0.59766   0.38736   0.48493   0.37006
H          H       0.32281   0.18142   0.45845   0.10722
H          H       0.42886   0.07624   0.49565   0.10191
H          H       0.45737   0.97220   0.43988   0.11446
H          H       0.25847   0.07576   0.31212   0.12092
H          H       0.23720   0.18112   0.36671   0.10718
H          H       0.16172   0.93053   0.40201   0.10808
H          H       0.10132   0.81683   0.43924   0.10723
H          H       0.45659   0.72827   0.36511   0.11799
H          H       0.51897   0.84166   0.32760   0.11415
H          H       0.33773   0.87434   0.25958   0.12441
H          H       0.42745   0.88973   0.16976   0.12215
H          H       0.64287   0.07134   0.21833   0.11763
H          H       0.55041   0.05806   0.30808   0.11637
H          H       0.34153   0.42326   0.42701   0.43350
H          H       0.90234   0.38736   0.51507   0.36999
H          H       0.32283   0.31863   0.04158   0.10714
H          H       0.42890   0.42381   0.00440   0.10225
H          H       0.45747   0.52784   0.06016   0.11466
H          H       0.25856   0.42430   0.18789   0.12084
H          H       0.23722   0.31895   0.13330   0.10690
H          H       0.16194   0.56956   0.09802   0.10756
H          H       0.10156   0.68321   0.06075   0.10710
H          H       0.45688   0.77180   0.13492   0.11853
H          H       0.51912   0.65841   0.17249   0.11392
H          H       0.33860   0.62557   0.24070   0.12258
H          H       0.42813   0.60971   0.33046   0.12134
H          H       0.64305   0.42815   0.28148   0.11771
H          H       0.55055   0.44184   0.19176   0.11668
H          H       0.34183   0.07739   0.07296   0.43298
H          H       0.90214   0.11248   0.98504   0.36951
H          H       0.17717   0.31863   0.95841   0.10698
H          H       0.07111   0.42381   0.99560   0.10219
H          H       0.04253   0.52784   0.93984   0.11462
H          H       0.24145   0.42430   0.81211   0.12101
H          H       0.26278   0.31895   0.86670   0.10696
H          H       0.33807   0.56956   0.90198   0.10756
H          H       0.39844   0.68321   0.93925   0.10699
H          H       0.04313   0.77180   0.86507   0.11853
H          H       0.98089   0.65841   0.82751   0.11396
H          H       0.16140   0.62557   0.75930   0.12260
H          H       0.07187   0.60971   0.66953   0.12152
H          H       0.85695   0.42815   0.71851   0.11771
H          H       0.94945   0.44184   0.80824   0.11649
H          H       0.15817   0.07739   0.92704   0.43315
H          H       0.59787   0.11248   0.01495   0.36939
H          H       0.82281   0.81858   0.45845   0.10721
H          H       0.92886   0.92376   0.49565   0.10190
H          H       0.95737   0.02780   0.43988   0.11447
H          H       0.75848   0.92424   0.31212   0.12091
H          H       0.73720   0.81888   0.36671   0.10717
H          H       0.66172   0.06947   0.40201   0.10792
H          H       0.60132   0.18318   0.43924   0.10718
H          H       0.95659   0.27173   0.36511   0.11803
H          H       0.01897   0.15834   0.32760   0.11422
H          H       0.83773   0.12566   0.25958   0.12440
H          H       0.92745   0.11027   0.16976   0.12220
H          H       0.14287   0.92866   0.21833   0.11758
H          H       0.05041   0.94194   0.30808   0.11633
H          H       0.84153   0.57674   0.42701   0.43350
H          H       0.40234   0.61264   0.51507   0.37007
H          H       0.67720   0.81858   0.54155   0.10719
H          H       0.57114   0.92376   0.50435   0.10203
H          H       0.54263   0.02780   0.56011   0.11445
H          H       0.74153   0.92424   0.68787   0.12077
H          H       0.76280   0.81888   0.63328   0.10715
H          H       0.83828   0.06947   0.59799   0.10806
H          H       0.89868   0.18318   0.56075   0.10729
H          H       0.54341   0.27173   0.63489   0.11797
H          H       0.48103   0.15834   0.67240   0.11407
H          H       0.66228   0.12566   0.74042   0.12451
H          H       0.57255   0.11027   0.83024   0.12219
H          H       0.35713   0.92866   0.78167   0.11753
H          H       0.44959   0.94194   0.69192   0.11643
H          H       0.65847   0.57674   0.57299   0.43322
H          H       0.09766   0.61264   0.48493   0.37008
H          H       0.67717   0.68137   0.95841   0.10707
H          H       0.57111   0.57619   0.99560   0.10218
H          H       0.54253   0.47216   0.93984   0.11458
H          H       0.74145   0.57570   0.81211   0.12106
H          H       0.76278   0.68105   0.86670   0.10700
H          H       0.83807   0.43044   0.90198   0.10759
H          H       0.89844   0.31679   0.93925   0.10700
H          H       0.54313   0.22820   0.86507   0.11839
H          H       0.48088   0.34159   0.82751   0.11395
H          H       0.66140   0.37443   0.75930   0.12257
H          H       0.57187   0.39029   0.66953   0.12150
H          H       0.35695   0.57185   0.71851   0.11778
H          H       0.44945   0.55816   0.80824   0.11650
H          H       0.65817   0.92261   0.92704   0.43310
H          H       0.09787   0.88752   0.01495   0.36937
H          H       0.82283   0.68137   0.04158   0.10718
H          H       0.92890   0.57619   0.00440   0.10226
H          H       0.95747   0.47216   0.06016   0.11464
H          H       0.75856   0.57570   0.18789   0.12083
H          H       0.73723   0.68105   0.13330   0.10689
H          H       0.66194   0.43044   0.09802   0.10757
H          H       0.60156   0.31679   0.06075   0.10707
H          H       0.95688   0.22820   0.13492   0.11851
H          H       0.01912   0.34159   0.17249   0.11398
H          H       0.83860   0.37443   0.24070   0.12249
H          H       0.92813   0.39029   0.33046   0.12130
H          H       0.14305   0.57185   0.28148   0.11773
H          H       0.05055   0.55816   0.19176   0.11667
H          H       0.84183   0.92261   0.07296   0.43296
H          H       0.40214   0.88752   0.98504   0.36951
C          C       0.16808   0.13548   0.56536  -0.09778
C          C       0.10790   0.07635   0.54456  -0.07391
C          C       0.09206   0.01800   0.57547  -0.17487
C          C       0.13908   0.01802   0.62738   0.17190
C          C       0.20296   0.07665   0.64789  -0.17674
C          C       0.21530   0.13533   0.61706  -0.07779
C          C       0.15582   0.89367   0.63811   0.17571
C          C       0.27343   0.88634   0.60622  -0.18888
C          C       0.30742   0.82267   0.58520  -0.07767
C          C       0.22593   0.76498   0.59579  -0.04824
C          C       0.10797   0.77277   0.62742  -0.08612
C          C       0.07277   0.83611   0.64822  -0.19528
C          C       0.06430   0.96545   0.70970   0.19286
C          C       0.09549   0.91752   0.74929  -0.19661
C          C       0.04429   0.92580   0.79960  -0.06836
C          C       0.95828   0.98158   0.81185  -0.07832
C          C       0.92520   0.02882   0.77227  -0.06989
C          C       0.97687   0.02112   0.72199  -0.19406
C          C       0.90080   0.99014   0.86496   0.59618
C          C       0.26265   0.69589   0.57437   0.57431
C          C       0.33192   0.13548   0.43464  -0.09815
C          C       0.39210   0.07635   0.45544  -0.07385
C          C       0.40794   0.01800   0.42453  -0.17501
C          C       0.36092   0.01802   0.37261   0.17194
C          C       0.29705   0.07665   0.35211  -0.17676
C          C       0.28470   0.13533   0.38294  -0.07756
C          C       0.34418   0.89367   0.36189   0.17573
C          C       0.22658   0.88634   0.39378  -0.18891
C          C       0.19258   0.82267   0.41480  -0.07789
C          C       0.27407   0.76498   0.40421  -0.04816
C          C       0.39203   0.77277   0.37258  -0.08612
C          C       0.42724   0.83611   0.35178  -0.19515
C          C       0.43570   0.96545   0.29030   0.19283
C          C       0.40451   0.91752   0.25071  -0.19666
C          C       0.45571   0.92580   0.20039  -0.06829
C          C       0.54173   0.98158   0.18814  -0.07815
C          C       0.57480   0.02882   0.22773  -0.06994
C          C       0.52313   0.02112   0.27801  -0.19411
C          C       0.59920   0.99014   0.13504   0.59605
C          C       0.23736   0.69589   0.42562   0.57439
C          C       0.33196   0.36457   0.06539  -0.09820
C          C       0.39215   0.42371   0.04460  -0.07387
C          C       0.40803   0.48206   0.07552  -0.17527
C          C       0.36102   0.48205   0.12742   0.17270
C          C       0.29710   0.42341   0.14791  -0.17714
C          C       0.28474   0.36473   0.11708  -0.07727
C          C       0.34438   0.60640   0.13818   0.17547
C          C       0.22679   0.61374   0.10625  -0.18775
C          C       0.19281   0.67741   0.08522  -0.07826
C          C       0.27422   0.73512   0.09581  -0.04834
C          C       0.39221   0.72733   0.12745  -0.08619
C          C       0.42739   0.66398   0.14829  -0.19518
C          C       0.43607   0.53448   0.20975   0.19322
C          C       0.40520   0.58227   0.24947  -0.19486
C          C       0.45640   0.57371   0.29978  -0.06637
C          C       0.54233   0.51781   0.31184  -0.07897
C          C       0.57516   0.47075   0.27213  -0.07084
C          C       0.52339   0.47870   0.22189  -0.19426
C          C       0.60015   0.50871   0.36482   0.60007
C          C       0.23728   0.80417   0.07435   0.57372
C          C       0.16804   0.36457   0.93461  -0.09816
C          C       0.10785   0.42371   0.95539  -0.07414
C          C       0.09198   0.48206   0.92448  -0.17525
C          C       0.13899   0.48205   0.87257   0.17267
C          C       0.20290   0.42341   0.85209  -0.17715
C          C       0.21527   0.36473   0.88292  -0.07711
C          C       0.15563   0.60640   0.86182   0.17555
C          C       0.27321   0.61374   0.89374  -0.18787
C          C       0.30720   0.67741   0.91478  -0.07809
C          C       0.22578   0.73512   0.90419  -0.04846
C          C       0.10779   0.72733   0.87254  -0.08615
C          C       0.07262   0.66398   0.85171  -0.19517
C          C       0.06393   0.53448   0.79024   0.19334
C          C       0.09480   0.58227   0.75053  -0.19490
C          C       0.04360   0.57371   0.70021  -0.06638
C          C       0.95767   0.51781   0.68816  -0.07880
C          C       0.92484   0.47075   0.72786  -0.07099
C          C       0.97661   0.47870   0.77810  -0.19419
C          C       0.89986   0.50871   0.63518   0.60011
C          C       0.26272   0.80417   0.92565   0.57382
C          C       0.83192   0.86452   0.43464  -0.09815
C          C       0.89210   0.92366   0.45544  -0.07384
C          C       0.90794   0.98200   0.42453  -0.17499
C          C       0.86092   0.98198   0.37261   0.17190
C          C       0.79705   0.92335   0.35211  -0.17678
C          C       0.78470   0.86467   0.38294  -0.07758
C          C       0.84418   0.10633   0.36189   0.17567
C          C       0.72658   0.11366   0.39378  -0.18874
C          C       0.69259   0.17733   0.41480  -0.07786
C          C       0.77407   0.23502   0.40421  -0.04815
C          C       0.89203   0.22723   0.37258  -0.08613
C          C       0.92724   0.16389   0.35178  -0.19520
C          C       0.93570   0.03455   0.29030   0.19283
C          C       0.90452   0.08248   0.25071  -0.19657
C          C       0.95571   0.07420   0.20039  -0.06841
C          C       0.04173   0.01842   0.18814  -0.07804
C          C       0.07480   0.97118   0.22773  -0.07000
C          C       0.02313   0.97889   0.27801  -0.19405
C          C       0.09920   0.00987   0.13504   0.59600
C          C       0.73736   0.30411   0.42562   0.57431
C          C       0.66808   0.86452   0.56536  -0.09781
C          C       0.60790   0.92366   0.54456  -0.07391
C          C       0.59206   0.98200   0.57547  -0.17487
C          C       0.63908   0.98198   0.62738   0.17190
C          C       0.70296   0.92335   0.64789  -0.17669
C          C       0.71531   0.86467   0.61706  -0.07778
C          C       0.65582   0.10633   0.63811   0.17572
C          C       0.77343   0.11366   0.60622  -0.18886
C          C       0.80742   0.17733   0.58520  -0.07763
C          C       0.72593   0.23502   0.59579  -0.04822
C          C       0.60797   0.22723   0.62742  -0.08610
C          C       0.57277   0.16389   0.64822  -0.19534
C          C       0.56430   0.03455   0.70970   0.19293
C          C       0.59549   0.08248   0.74929  -0.19666
C          C       0.54429   0.07420   0.79960  -0.06842
C          C       0.45827   0.01842   0.81185  -0.07837
C          C       0.42520   0.97118   0.77227  -0.06986
C          C       0.47687   0.97888   0.72199  -0.19413
C          C       0.40080   0.00987   0.86496   0.59626
C          C       0.76265   0.30411   0.57437   0.57423
C          C       0.66805   0.63543   0.93461  -0.09821
C          C       0.60785   0.57629   0.95539  -0.07415
C          C       0.59198   0.51794   0.92448  -0.17524
C          C       0.63899   0.51795   0.87257   0.17257
C          C       0.70290   0.57659   0.85209  -0.17715
C          C       0.71527   0.63527   0.88292  -0.07710
C          C       0.65563   0.39360   0.86182   0.17555
C          C       0.77321   0.38626   0.89374  -0.18784
C          C       0.80720   0.32259   0.91478  -0.07807
C          C       0.72578   0.26488   0.90419  -0.04853
C          C       0.60779   0.27267   0.87254  -0.08602
C          C       0.57262   0.33602   0.85171  -0.19523
C          C       0.56393   0.46552   0.79024   0.19340
C          C       0.59480   0.41773   0.75053  -0.19494
C          C       0.54361   0.42629   0.70021  -0.06637
C          C       0.45767   0.48219   0.68816  -0.07895
C          C       0.42484   0.52925   0.72786  -0.07091
C          C       0.47661   0.52131   0.77810  -0.19423
C          C       0.39985   0.49129   0.63518   0.60018
C          C       0.76272   0.19583   0.92565   0.57385
C          C       0.83196   0.63543   0.06539  -0.09822
C          C       0.89215   0.57629   0.04460  -0.07388
C          C       0.90803   0.51794   0.07552  -0.17526
C          C       0.86102   0.51795   0.12742   0.17275
C          C       0.79710   0.57659   0.14791  -0.17716
C          C       0.78474   0.63527   0.11708  -0.07723
C          C       0.84438   0.39360   0.13818   0.17548
C          C       0.72679   0.38626   0.10625  -0.18772
C          C       0.69281   0.32259   0.08522  -0.07829
C          C       0.77422   0.26488   0.09581  -0.04829
C          C       0.89222   0.27267   0.12745  -0.08627
C          C       0.92739   0.33602   0.14829  -0.19513
C          C       0.93607   0.46552   0.20975   0.19326
C          C       0.90520   0.41773   0.24947  -0.19482
C          C       0.95640   0.42629   0.29978  -0.06630
C          C       0.04233   0.48219   0.31184  -0.07903
C          C       0.07516   0.52925   0.27213  -0.07077
C          C       0.02339   0.52131   0.22189  -0.19423
C          C       0.10015   0.49129   0.36482   0.60002
C          C       0.73728   0.19583   0.07435   0.57371
N          N       0.12030   0.95865   0.65915  -0.13889
N          N       0.37971   0.95865   0.34085  -0.13888
N          N       0.37989   0.54140   0.15922  -0.13967
N          N       0.12011   0.54140   0.84078  -0.13975
N          N       0.87971   0.04135   0.34085  -0.13880
N          N       0.62030   0.04135   0.65915  -0.13894
N          N       0.62011   0.45860   0.84078  -0.13970
N          N       0.87989   0.45860   0.15922  -0.13976
O          O       0.95180   0.95140   0.90142  -0.62897
O          O       0.80578   0.03469   0.87121  -0.56792
O          O       0.37005   0.68714   0.54737  -0.53839
O          O       0.17394   0.64894   0.58714  -0.57270
O          O       0.19323   0.45302   0.54545  -0.92126
O          O       0.58316   0.43354   0.50220  -0.98494
O          O       0.54821   0.95140   0.09858  -0.62896
O          O       0.69422   0.03469   0.12879  -0.56788
O          O       0.12995   0.68714   0.45263  -0.53866
O          O       0.32606   0.64894   0.41285  -0.57255
O          O       0.30677   0.45302   0.45455  -0.92150
O          O       0.91684   0.43354   0.49780  -0.98502
O          O       0.54694   0.54570   0.40180  -0.63457
O          O       0.69775   0.46545   0.37057  -0.56545
O          O       0.12985   0.81289   0.04732  -0.53835
O          O       0.32589   0.85119   0.08714  -0.56987
O          O       0.30716   0.04754   0.04545  -0.92092
O          O       0.91666   0.06630   0.00230  -0.98291
O          O       0.95307   0.54570   0.59819  -0.63447
O          O       0.80225   0.46545   0.62943  -0.56563
O          O       0.37015   0.81289   0.95268  -0.53847
O          O       0.17412   0.85119   0.91286  -0.56990
O          O       0.19285   0.04754   0.95455  -0.92099
O          O       0.58334   0.06630   0.99770  -0.98293
O          O       0.04821   0.04860   0.09858  -0.62894
O          O       0.19422   0.96531   0.12879  -0.56790
O          O       0.62995   0.31286   0.45263  -0.53865
O          O       0.82606   0.35106   0.41285  -0.57251
O          O       0.80678   0.54698   0.45455  -0.92146
O          O       0.41684   0.56647   0.49780  -0.98510
O          O       0.45179   0.04860   0.90142  -0.62899
O          O       0.30578   0.96531   0.87121  -0.56796
O          O       0.87005   0.31286   0.54737  -0.53830
O          O       0.67394   0.35106   0.58714  -0.57271
O          O       0.69323   0.54698   0.54545  -0.92129
O          O       0.08316   0.56647   0.50220  -0.98493
O          O       0.45307   0.45430   0.59819  -0.63451
O          O       0.30225   0.53455   0.62943  -0.56561
O          O       0.87015   0.18712   0.95268  -0.53844
O          O       0.67412   0.14881   0.91286  -0.56996
O          O       0.69285   0.95246   0.95455  -0.92097
O          O       0.08334   0.93370   0.99770  -0.98292
O          O       0.04693   0.45430   0.40180  -0.63453
O          O       0.19775   0.53455   0.37057  -0.56542
O          O       0.62986   0.18712   0.04732  -0.53839
O          O       0.82589   0.14881   0.08714  -0.56985
O          O       0.80716   0.95247   0.04545  -0.92091
O          O       0.41666   0.93370   0.00230  -0.98294

