data_crystal

_audit_creation_method 'AiiDA-DDEC plugin'

_cell_length_a        16.60401
_cell_length_b        17.86476
_cell_length_c        18.78863

_cell_angle_alpha     78.09200
_cell_angle_beta     63.74917
_cell_angle_gamma     62.22739

_symmetry_space_group_name_Hall 'P 1'
_symmetry_space_group_name_H-M  'P 1'

loop_
_symmetry_equiv_pos_as_xyz
 'x,y,z'

loop_
_atom_site_label
_atom_site_type_symbol
_atom_site_fract_x
_atom_site_fract_y
_atom_site_fract_z
_atom_site_charge
Cu         Cu      0.95098   0.05726   0.04822   0.90710
Cu         Cu      0.00047   0.44292   0.04874   0.90802
Cu         Cu      0.99240   0.05703   0.45116   0.90787
Cu         Cu      0.55662   0.44302   0.45103   0.90902
Cu         Cu      0.04902   0.94274   0.95178   0.90707
Cu         Cu     -0.00047   0.55707   0.95126   0.90799
Cu         Cu      0.00759   0.94297   0.54884   0.90775
Cu         Cu      0.44338   0.55698   0.54898   0.90920
H          H       0.70573  -0.00066   0.20399   0.12417
H          H       0.58352   0.93868   0.27879   0.12441
H          H       0.77526   0.71925   0.12670   0.11292
H          H       0.89527   0.78043   0.05217   0.12440
H          H       0.90358   0.03992   0.78169   0.12343
H          H       0.78239   0.11546   0.72037   0.11652
H          H       0.58858   0.28613   0.91992   0.12548
H          H       0.71214   0.21088   0.98017   0.12569
H          H       0.09178   0.49954   0.20307   0.12315
H          H       0.13967   0.55955   0.27787   0.12449
H          H       0.09971   0.77964   0.12660   0.11404
H          H       0.05356   0.71921   0.05196   0.12365
H          H       0.31361   0.46042   0.78300   0.12327
H          H       0.49624   0.38519   0.72083   0.11856
H          H       0.49197   0.21323   0.91948   0.12776
H          H       0.30798   0.28848   0.98072   0.12516
H          H       0.29378  -0.00145   0.29661   0.12458
H          H       0.47695   0.93845   0.22197   0.12739
H          H       0.50592   0.71904   0.37406   0.11426
H          H       0.32441   0.77951   0.44834   0.12440
H          H       0.05891   0.03967   0.71603   0.12289
H          H       0.10357   0.11544   0.77804   0.11703
H          H       0.12696   0.28623   0.57854   0.12503
H          H       0.07989   0.21074   0.51752   0.12416
H          H       0.40913   0.50009   0.29734   0.12362
H          H       0.30093   0.56014   0.22246   0.12417
H          H       0.11981   0.77988   0.37392   0.11468
H          H       0.22676   0.71947   0.44859   0.12520
H          H       0.22488   0.46067   0.71623   0.12329
H          H       0.11797   0.38492   0.77807   0.11711
H          H       0.29487   0.21389   0.57878   0.12551
H          H       0.40297   0.28965   0.51785   0.12464
H          H       0.29427   0.00066   0.79601   0.12425
H          H       0.41648   0.06132   0.72122   0.12438
H          H       0.22474   0.28075   0.87331   0.11288
H          H       0.10473   0.21957   0.94783   0.12435
H          H       0.09642   0.96008   0.21831   0.12336
H          H       0.21760   0.88454   0.27964   0.11650
H          H       0.41142   0.71387   0.08008   0.12555
H          H       0.28786   0.78911   0.01983   0.12566
H          H       0.90822   0.50046   0.79694   0.12304
H          H       0.86033   0.44044   0.72214   0.12435
H          H       0.90029   0.22035   0.87340   0.11411
H          H       0.94644   0.28079   0.94804   0.12369
H          H       0.68639   0.53958   0.21700   0.12332
H          H       0.50376   0.61481   0.27917   0.11860
H          H       0.50803   0.78677   0.08052   0.12762
H          H       0.69202   0.71151   0.01928   0.12512
H          H       0.70622   0.00145   0.70339   0.12469
H          H       0.52305   0.06155   0.77804   0.12757
H          H       0.49408   0.28096   0.62594   0.11413
H          H       0.67559   0.22049   0.55166   0.12424
H          H       0.94108   0.96033   0.28398   0.12280
H          H       0.89644   0.88456   0.22196   0.11700
H          H       0.87304   0.71377   0.42146   0.12521
H          H       0.92011   0.78925   0.48249   0.12429
H          H       0.59087   0.49990   0.70266   0.12353
H          H       0.69907   0.43986   0.77755   0.12423
H          H       0.88019   0.22011   0.62609   0.11473
H          H       0.77324   0.28053   0.55142   0.12516
H          H       0.77512   0.53933   0.28377   0.12337
H          H       0.88203   0.61508   0.22193   0.11711
H          H       0.70513   0.78611   0.42122   0.12546
H          H       0.59703   0.71034   0.48215   0.12473
H          H       0.63903   0.72172   0.24924   0.25939
H          H       0.11212   0.77712   0.24934   0.25923
H          H       0.36097   0.27827   0.75076   0.25932
H          H       0.88788   0.22287   0.75067   0.25934
H          H       0.64037   0.24969   0.71873   0.25896
H          H       0.11067   0.24943   0.78015   0.26016
H          H       0.35963   0.75031   0.28127   0.25911
H          H       0.88933   0.75057   0.21985   0.26012
C          C       0.80861   0.89447   0.12309  -0.08014
C          C       0.71956   0.93850   0.18693  -0.07384
C          C       0.65089   0.90482   0.22845  -0.19713
C          C       0.67032   0.82482   0.20758   0.24054
C          C       0.75980   0.78049   0.14382  -0.19677
C          C       0.82746   0.81500   0.10193  -0.07745
C          C       0.88136   0.93080   0.07947   0.57015
C          C       0.88847   0.07661   0.92300   0.56817
C          C       0.81608   0.12015   0.88555  -0.07261
C          C       0.83503   0.09414   0.81178  -0.08058
C          C       0.76666   0.13672   0.77717  -0.19910
C          C       0.67623   0.20605   0.81604   0.24336
C          C       0.65693   0.23167   0.89028  -0.19932
C          C       0.72615   0.18972   0.92387  -0.07500
C          C       0.06909   0.60498   0.12276  -0.07956
C          C       0.09472   0.56050   0.18631  -0.07185
C          C       0.12204   0.59385   0.22790  -0.20003
C          C       0.12304   0.67403   0.20735   0.24380
C          C       0.09750   0.71857   0.14363  -0.20123
C          C       0.07156   0.68440   0.10166  -0.07614
C          C       0.03931   0.56900   0.07947   0.57105
C          C       0.18834   0.42308   0.92412   0.56934
C          C       0.29817   0.37967   0.88650  -0.07587
C          C       0.35255   0.40604   0.81270  -0.07953
C          C       0.45553   0.36364   0.77767  -0.19885
C          C       0.50742   0.29413   0.81620   0.24078
C          C       0.45288   0.26804   0.89036  -0.19695
C          C       0.35008   0.30988   0.92443  -0.07486
C          C       0.29662   0.89357   0.37733  -0.07850
C          C       0.34126   0.93785   0.31359  -0.07409
C          C       0.44365   0.90443   0.27218  -0.20067
C          C       0.50452   0.82452   0.29304   0.24104
C          C       0.45973   0.78005   0.35681  -0.19685
C          C       0.35747   0.81423   0.39863  -0.07841
C          C       0.18744   0.93004   0.42055   0.57139
C          C       0.03707   0.07697   0.57480   0.56912
C          C       0.06617   0.12016   0.61225  -0.07551
C          C       0.07293   0.09402   0.68615  -0.07934
C          C       0.09812   0.13661   0.72115  -0.19802
C          C       0.11886   0.20606   0.68250   0.23941
C          C       0.11311   0.23174   0.60804  -0.19466
C          C       0.08649   0.18971   0.57405  -0.07508
C          C       0.32565   0.60536   0.37772  -0.08074
C          C       0.34483   0.56089   0.31411  -0.07267
C          C       0.28407   0.59424   0.27257  -0.19942
C          C       0.20257   0.67427   0.29321   0.24447
C          C       0.18330   0.71884   0.35696  -0.20000
C          C       0.24351   0.68471   0.39890  -0.07789
C          C       0.39173   0.56916   0.42077   0.57375
C          C       0.38831   0.42317   0.57537   0.57229
C          C       0.32160   0.38010   0.61259  -0.07831
C          C       0.24073   0.40631   0.68638  -0.08073
C          C       0.18048   0.36373   0.72126  -0.19614
C          C       0.19868   0.29420   0.68258   0.24194
C          C       0.27905   0.26850   0.60821  -0.19733
C          C       0.33962   0.31058   0.57430  -0.07329
C          C       0.19139   0.10553   0.87691  -0.08017
C          C       0.28044   0.06149   0.81307  -0.07377
C          C       0.34911   0.09518   0.77155  -0.19706
C          C       0.32968   0.17518   0.79242   0.24058
C          C       0.24020   0.21950   0.85618  -0.19692
C          C       0.17254   0.18500   0.89807  -0.07728
C          C       0.11864   0.06920   0.92053   0.56981
C          C       0.11153   0.92339   0.07701   0.56831
C          C       0.18393   0.87985   0.11445  -0.07256
C          C       0.16496   0.90586   0.18822  -0.08070
C          C       0.23334   0.86328   0.22283  -0.19896
C          C       0.32377   0.79395   0.18396   0.24331
C          C       0.34307   0.76833   0.10972  -0.19925
C          C       0.27385   0.81028   0.07614  -0.07515
C          C       0.93091   0.39501   0.87724  -0.07953
C          C       0.90528   0.43950   0.81369  -0.07197
C          C       0.87796   0.40614   0.77211  -0.20013
C          C       0.87696   0.32597   0.79265   0.24386
C          C       0.90250   0.28142   0.85638  -0.20115
C          C       0.92844   0.31560   0.89834  -0.07600
C          C       0.96069   0.43100   0.92054   0.57113
C          C       0.81166   0.57691   0.07588   0.56931
C          C       0.70183   0.62033   0.11350  -0.07563
C          C       0.64745   0.59396   0.18731  -0.07952
C          C       0.54447   0.63635   0.22233  -0.19863
C          C       0.49258   0.70587   0.18380   0.24070
C          C       0.54712   0.73196   0.10964  -0.19691
C          C       0.64992   0.69011   0.07557  -0.07521
C          C       0.70338   0.10643   0.62267  -0.07830
C          C       0.65874   0.06215   0.68641  -0.07414
C          C       0.55635   0.09557   0.72783  -0.20064
C          C       0.49548   0.17548   0.70696   0.24113
C          C       0.54027   0.21994   0.64319  -0.19702
C          C       0.64253   0.18577   0.60137  -0.07836
C          C       0.81255   0.06996   0.57945   0.57121
C          C       0.96293   0.92302   0.42521   0.56899
C          C       0.93383   0.87984   0.38775  -0.07567
C          C       0.92707   0.90597   0.31386  -0.07930
C          C       0.90188   0.86338   0.27885  -0.19822
C          C       0.88114   0.79394   0.31750   0.23946
C          C       0.88689   0.76825   0.39196  -0.19456
C          C       0.91350   0.81028   0.42595  -0.07510
C          C       0.67435   0.39464   0.62228  -0.08088
C          C       0.65517   0.43911   0.68589  -0.07251
C          C       0.71593   0.40576   0.72743  -0.19962
C          C       0.79743   0.32573   0.70679   0.24449
C          C       0.81670   0.28115   0.64305  -0.20000
C          C       0.75649   0.31529   0.60110  -0.07784
C          C       0.60827   0.43083   0.57923   0.57395
C          C       0.61169   0.57682   0.42463   0.57215
C          C       0.67839   0.61990   0.38741  -0.07830
C          C       0.75927   0.59369   0.31362  -0.08068
C          C       0.81951   0.63627   0.27875  -0.19634
C          C       0.80132   0.70580   0.31742   0.24214
C          C       0.72095   0.73150   0.39180  -0.19747
C          C       0.66038   0.68941   0.42570  -0.07325
N          N       0.60681   0.78618   0.25025  -0.32810
N          N       0.14344   0.71267   0.25024  -0.32870
N          N       0.39319   0.21381   0.74976  -0.32825
N          N       0.85656   0.28732   0.74976  -0.32869
N          N       0.61027   0.25017   0.77920  -0.33349
N          N       0.14023   0.25004   0.71968  -0.33248
N          N       0.38973   0.74983   0.22081  -0.33349
N          N       0.85977   0.74996   0.28032  -0.33253
O          O       0.87172   0.11337   0.98344  -0.55136
O          O       0.86432  -0.00076   0.10721  -0.55092
O          O       0.95698   0.89099   0.01754  -0.54214
O          O       0.96285   0.00643   0.89273  -0.54035
O          O       0.14476   0.38679   0.98522  -0.55091
O          O       0.02837   0.50069   0.10755  -0.54934
O          O       0.02527   0.60882   0.01765  -0.54486
O          O       0.14432   0.49269   0.89310  -0.54083
O          O       0.01788   0.11347   0.51390  -0.55062
O          O       0.13658  -0.00151   0.39233  -0.54880
O          O       0.15112   0.89051   0.48244  -0.54418
O          O       0.03154   0.00744   0.60583  -0.54328
O          O       0.46834   0.38681   0.51434  -0.55187
O          O       0.47114   0.50100   0.39230  -0.54982
O          O       0.36600   0.60866   0.48270  -0.54574
O          O       0.36293   0.49241   0.60676  -0.54311
O          O       0.12828   0.88663   0.01656  -0.55136
O          O       0.13568   0.00075   0.89279  -0.55083
O          O       0.04302   0.10901   0.98246  -0.54191
O          O       0.03715   0.99357   0.10727  -0.54047
O          O       0.85524   0.61320   0.01478  -0.55107
O          O       0.97163   0.49931   0.89245  -0.54962
O          O       0.97473   0.39117   0.98235  -0.54466
O          O       0.85568   0.50731   0.10690  -0.54065
O          O       0.98212   0.88652   0.48610  -0.55044
O          O       0.86342   0.00151   0.60767  -0.54853
O          O       0.84888   0.10949   0.51757  -0.54431
O          O       0.96845   0.99256   0.39418  -0.54335
O          O       0.53166   0.61319   0.48566  -0.55192
O          O       0.52886   0.49900   0.60770  -0.55007
O          O       0.63400   0.39134   0.51730  -0.54563
O          O       0.63707   0.50758   0.39325  -0.54297

