data_crystal

_audit_creation_method 'AiiDA-DDEC plugin'

_cell_length_a        18.32237
_cell_length_b        18.32483
_cell_length_c        18.32586

_cell_angle_alpha     75.37585
_cell_angle_beta     75.36576
_cell_angle_gamma     75.32777

_symmetry_space_group_name_Hall 'P 1'
_symmetry_space_group_name_H-M  'P 1'

loop_
_symmetry_equiv_pos_as_xyz
 'x,y,z'

loop_
_atom_site_label
_atom_site_type_symbol
_atom_site_fract_x
_atom_site_fract_y
_atom_site_fract_z
_atom_site_charge
Cu         Cu      0.73236   0.59274   0.15767   0.71103
Cu         Cu      0.59220   0.15745   0.73196   0.71307
Cu         Cu      0.15716   0.73242   0.59252   0.71153
Cu         Cu      0.90688   0.76736   0.34240   0.71193
Cu         Cu      0.34106   0.90534   0.76924   0.71452
Cu         Cu      0.76876   0.34182   0.90587   0.71442
Cu         Cu      0.26762   0.40719   0.84230   0.71090
Cu         Cu      0.40781   0.84256   0.26802   0.71288
Cu         Cu      0.84286   0.26746   0.40738   0.71146
Cu         Cu      0.09333   0.23249   0.65794   0.71138
Cu         Cu      0.65900   0.09471   0.23070   0.71431
Cu         Cu      0.23119   0.65817   0.09430   0.71210
H          H       0.70340   0.55294   0.02011   0.10453
H          H       0.63456   0.61881   0.91262   0.14414
H          H       0.58521   0.82778   0.00228   0.13906
H          H       0.65627   0.75153   0.10678   0.11930
H          H       0.55278   0.01944   0.70356   0.10485
H          H       0.61914   0.91191   0.63501   0.14338
H          H       0.82736   0.00296   0.58493   0.13942
H          H       0.75071   0.10705   0.65633   0.11859
H          H       0.01923   0.70386   0.55269   0.10445
H          H       0.91194   0.63502   0.61885   0.14487
H          H       0.00299   0.58492   0.82710   0.13980
H          H       0.10693   0.65655   0.75058   0.11739
H          H       0.94627   0.79512   0.48029   0.10318
H          H       0.88127   0.86454   0.58743   0.14535
H          H       0.67218   0.91588   0.49754   0.14003
H          H       0.74741   0.84356   0.39380   0.11850
H          H       0.47962   0.94616   0.79596   0.10517
H          H       0.58731   0.88113   0.86485   0.14548
H          H       0.49817   0.67174   0.91570   0.13997
H          H       0.39380   0.74707   0.84414   0.11767
H          H       0.79607   0.48011   0.94628   0.10417
H          H       0.86479   0.58777   0.88091   0.14576
H          H       0.91583   0.49770   0.67196   0.13914
H          H       0.84369   0.39390   0.74742   0.11945
H          H       0.29655   0.44698   0.97982   0.10440
H          H       0.36540   0.38118   0.08733   0.14381
H          H       0.41480   0.17214   0.99779   0.13905
H          H       0.34374   0.24832   0.89326   0.11975
H          H       0.44720   0.98055   0.29642   0.10508
H          H       0.38086   0.08806   0.36499   0.14347
H          H       0.17262   0.99703   0.41512   0.13937
H          H       0.24924   0.89296   0.34367   0.11892
H          H       0.98072   0.29609   0.44731   0.10456
H          H       0.08807   0.36487   0.38118   0.14472
H          H       0.99706   0.41504   0.17289   0.14003
H          H       0.89306   0.34347   0.24939   0.11736
H          H       0.05381   0.20488   0.51986   0.10333
H          H       0.11874   0.13549   0.41267   0.14538
H          H       0.32790   0.08407   0.50243   0.14002
H          H       0.25273   0.15627   0.60627   0.11818
H          H       0.52050   0.05388   0.20400   0.10476
H          H       0.41274   0.11885   0.13518   0.14566
H          H       0.50177   0.32831   0.08427   0.13967
H          H       0.60622   0.25304   0.15574   0.11762
H          H       0.20392   0.51988   0.05375   0.10444
H          H       0.13525   0.41218   0.11911   0.14607
H          H       0.08414   0.50223   0.32807   0.13916
H          H       0.15623   0.60607   0.25263   0.11928
C          C       0.09921   0.72978   0.06603   0.56231
C          C       0.02584   0.74808   0.03575  -0.12825
C          C       0.00762   0.81431   0.98044   0.10201
C          C       0.93327   0.83777   0.96072  -0.09160
C          C       0.67754   0.61402   0.01271   0.09867
C          C       0.63875   0.65129   0.95323  -0.17377
C          C       0.60406   0.72957   0.94897   0.09848
C          C       0.61212   0.76739   0.00329  -0.17042
C          C       0.65098   0.72558   0.06158   0.08546
C          C       0.85192   0.65562   0.06624   0.56817
C          C       0.90126   0.71613   0.04307  -0.13111
C          C       0.97195   0.70015   0.06658   0.14512
C          C       0.88154   0.78614   0.99373   0.10303
C          C       0.72996   0.06671   0.09837   0.55869
C          C       0.74805   0.03620   0.02522  -0.12922
C          C       0.81442   0.98100   0.00697   0.10144
C          C       0.83772   0.96113   0.93275  -0.08806
C          C       0.61386   0.01226   0.67768   0.10161
C          C       0.65141   0.95283   0.63889  -0.17292
C          C       0.72958   0.94897   0.60389   0.10110
C          C       0.76705   0.00360   0.61188  -0.17386
C          C       0.72504   0.06171   0.65094   0.09133
C          C       0.65470   0.06623   0.85210   0.56705
C          C       0.71573   0.04324   0.90092  -0.12885
C          C       0.69989   0.06690   0.97150   0.14546
C          C       0.78590   0.99400   0.88112   0.09816
C          C       0.06692   0.09889   0.72995   0.56294
C          C       0.03602   0.02590   0.74784  -0.12943
C          C       0.98085   0.00759   0.81415   0.10247
C          C       0.96112   0.93328   0.83744  -0.08716
C          C       0.01207   0.67795   0.61375   0.10178
C          C       0.95274   0.63905   0.65120  -0.17504
C          C       0.94895   0.60407   0.72934   0.09985
C          C       0.00357   0.61202   0.76686  -0.17148
C          C       0.06158   0.65116   0.72492   0.08968
C          C       0.06612   0.85241   0.65478   0.56485
C          C       0.04301   0.90157   0.71548  -0.12720
C          C       0.06656   0.97220   0.69962   0.14653
C          C       0.99403   0.88162   0.78568   0.09689
C          C       0.77033   0.40002   0.43467   0.55431
C          C       0.75194   0.47358   0.46492  -0.12450
C          C       0.68583   0.49210   0.52039   0.10259
C          C       0.66296   0.56643   0.54029  -0.09035
C          C       0.88531   0.82160   0.48756   0.10054
C          C       0.84848   0.86077   0.54689  -0.17380
C          C       0.77037   0.89616   0.55105   0.09964
C          C       0.73240   0.88839   0.49670  -0.17420
C          C       0.77372   0.84896   0.43868   0.09103
C          C       0.84609   0.64654   0.43398   0.56550
C          C       0.78519   0.59754   0.45805  -0.12763
C          C       0.80035   0.52712   0.43419   0.14387
C          C       0.71530   0.61754   0.50755   0.10056
C          C       0.43468   0.77067   0.40073   0.55363
C          C       0.46461   0.75245   0.47439  -0.12743
C          C       0.52024   0.68641   0.49272   0.10213
C          C       0.54007   0.66319   0.56703  -0.08761
C          C       0.48717   0.88518   0.82226   0.09947
C          C       0.54674   0.84837   0.86111  -0.17388
C          C       0.55119   0.77020   0.89623   0.09972
C          C       0.49700   0.73205   0.88847  -0.17538
C          C       0.43869   0.77339   0.84947   0.09261
C          C       0.43093   0.84478   0.64920   0.56656
C          C       0.45656   0.78468   0.59911  -0.13038
C          C       0.43344   0.80053   0.52822   0.14546
C          C       0.50677   0.71507   0.61856   0.09790
C          C       0.40054   0.43428   0.77042   0.55822
C          C       0.47400   0.46441   0.75228  -0.12802
C          C       0.49244   0.51974   0.68611   0.10592
C          C       0.56655   0.53994   0.66332  -0.09005
C          C       0.82222   0.48757   0.88528   0.09836
C          C       0.86109   0.54705   0.84828  -0.17495
C          C       0.89627   0.55119   0.77016   0.09900
C          C       0.88853   0.49681   0.73221  -0.17121
C          C       0.84925   0.43877   0.77364   0.08840
C          C       0.64769   0.43200   0.84569   0.57008
C          C       0.59840   0.45683   0.78492  -0.12677
C          C       0.52783   0.43322   0.80031   0.14439
C          C       0.61783   0.50713   0.71549   0.09710
C          C       0.90037   0.27022   0.93427   0.55999
C          C       0.97406   0.25180   0.96412  -0.12707
C          C       0.99233   0.18558   0.01946   0.10262
C          C       0.06667   0.16217   0.03921  -0.09223
C          C       0.32243   0.38590   0.98725   0.09720
C          C       0.36122   0.34867   0.04674  -0.17330
C          C       0.39593   0.27039   0.05104   0.09809
C          C       0.38787   0.23253   0.99674  -0.16946
C          C       0.34902   0.27430   0.93843   0.08480
C          C       0.14805   0.34428   0.93376   0.56802
C          C       0.09867   0.28381   0.95686  -0.13024
C          C       0.02796   0.29976   0.93334   0.14391
C          C       0.11838   0.21381   0.00623   0.10214
C          C       0.27009   0.93345   0.90140   0.55575
C          C       0.25196   0.96374   0.97467  -0.12758
C          C       0.18559   0.01893   0.99295   0.10081
C          C       0.16229   0.03881   0.06717  -0.08793
C          C       0.38611   0.98773   0.32230   0.10162
C          C       0.34857   0.04716   0.36111  -0.17351
C          C       0.27041   0.05102   0.39612   0.10143
C          C       0.23292   0.99639   0.38814  -0.17392
C          C       0.27493   0.93829   0.34906   0.09167
C          C       0.34533   0.93380   0.14780   0.56750
C          C       0.28431   0.95673   0.09897  -0.12945
C          C       0.30013   0.93305   0.02839   0.14548
C          C       0.21413   0.00595   0.11879   0.09788
C          C       0.93314   0.90102   0.27007   0.56231
C          C       0.96405   0.97402   0.25216  -0.12932
C          C       0.01921   0.99234   0.18583   0.10261
C          C       0.03894   0.06665   0.16253  -0.08698
C          C       0.98790   0.32201   0.38625   0.10118
C          C       0.04726   0.36088   0.34882  -0.17513
C          C       0.05107   0.39585   0.27068   0.10028
C          C       0.99646   0.38793   0.23314  -0.17218
C          C       0.93842   0.34883   0.27506   0.09056
C          C       0.93390   0.14760   0.34506   0.56447
C          C       0.95705   0.09838   0.28445  -0.12730
C          C       0.93350   0.02774   0.30035   0.14653
C          C       0.00602   0.11833   0.21426   0.09655
C          C       0.22955   0.59978   0.56532   0.55451
C          C       0.24787   0.52623   0.53508  -0.12575
C          C       0.31401   0.50772   0.47965   0.10300
C          C       0.33693   0.43344   0.45966  -0.08909
C          C       0.11475   0.17834   0.51259   0.10158
C          C       0.15155   0.13921   0.45322  -0.17400
C          C       0.22965   0.10381   0.44901   0.09889
C          C       0.26766   0.11153   0.50334  -0.17401
C          C       0.22637   0.15091   0.56141   0.09184
C          C       0.15414   0.35296   0.56638   0.56754
C          C       0.21487   0.40216   0.54208  -0.12797
C          C       0.19946   0.47270   0.56578   0.14437
C          C       0.28467   0.38228   0.49240   0.09928
C          C       0.56530   0.22930   0.59927   0.55377
C          C       0.53538   0.24752   0.52559  -0.12729
C          C       0.47976   0.31357   0.50726   0.10185
C          C       0.45996   0.33680   0.43294  -0.08775
C          C       0.51291   0.11485   0.17770   0.10039
C          C       0.45330   0.15164   0.13890  -0.17404
C          C       0.44881   0.22981   0.10377   0.09927
C          C       0.50299   0.26800   0.11149  -0.17490
C          C       0.56134   0.22668   0.15045   0.09236
C          C       0.56914   0.15518   0.35076   0.56541
C          C       0.54348   0.21531   0.40083  -0.12942
C          C       0.56656   0.19947   0.47174   0.14534
C          C       0.49328   0.28493   0.38139   0.09764
C          C       0.59943   0.56570   0.22960   0.55810
C          C       0.52593   0.53558   0.24778  -0.12779
C          C       0.50751   0.48022   0.31395   0.10607
C          C       0.43340   0.46003   0.33671  -0.09033
C          C       0.17778   0.51240   0.11476   0.09824
C          C       0.13893   0.45289   0.15174  -0.17486
C          C       0.10375   0.44874   0.22987   0.09913
C          C       0.11146   0.50312   0.26783  -0.17177
C          C       0.15071   0.56118   0.22640   0.08821
C          C       0.35226   0.56803   0.15432   0.56996
C          C       0.40155   0.54317   0.21509  -0.12671
C          C       0.47211   0.56677   0.19972   0.14410
C          C       0.38215   0.49285   0.28451   0.09732
C          C       0.91070   0.91067   0.91028   0.13129
C          C       0.58987   0.58992   0.59020   0.13008
C          C       0.08931   0.08927   0.08966   0.13181
C          C       0.41008   0.41004   0.40980   0.12999
N          N       0.68255   0.65032   0.06598  -0.21568
N          N       0.64985   0.06579   0.68263  -0.22247
N          N       0.06552   0.68296   0.64980  -0.22057
N          N       0.84885   0.81675   0.43437  -0.21891
N          N       0.43400   0.84856   0.81759  -0.22191
N          N       0.81736   0.43435   0.84881  -0.21845
N          N       0.31745   0.34956   0.93398  -0.21418
N          N       0.35011   0.93421   0.31735  -0.22297
N          N       0.93446   0.31702   0.35018  -0.22049
N          N       0.15124   0.18312   0.56580  -0.22092
N          N       0.56607   0.15151   0.18233  -0.22184
N          N       0.18261   0.56562   0.15124  -0.21744
Cl         Cl      0.99283   0.61788   0.13467   0.00687
Cl         Cl      0.07603   0.87075   0.94385   0.02182
Cl         Cl      0.79461   0.80442   0.96452  -0.02283
Cl         Cl      0.61751   0.13491   0.99261   0.00727
Cl         Cl      0.87131   0.94503   0.07506   0.02329
Cl         Cl      0.80421   0.96466   0.79426  -0.02297
Cl         Cl      0.13423   0.99336   0.61705   0.00652
Cl         Cl      0.94463   0.07573   0.87101   0.02062
Cl         Cl      0.96508   0.79456   0.80406  -0.02331
Cl         Cl      0.88238   0.50610   0.36572   0.00730
Cl         Cl      0.62838   0.42452   0.55644   0.02161
Cl         Cl      0.69828   0.70390   0.53761  -0.02586
Cl         Cl      0.36513   0.88275   0.50717   0.00662
Cl         Cl      0.55675   0.62944   0.42473   0.02281
Cl         Cl      0.53672   0.69783   0.70497  -0.02305
Cl         Cl      0.50726   0.36425   0.88195   0.00702
Cl         Cl      0.42503   0.55553   0.62846   0.01972
Cl         Cl      0.70392   0.53762   0.69868  -0.02581
Cl         Cl      0.00709   0.38206   0.86528   0.00663
Cl         Cl      0.92394   0.12913   0.05615   0.02164
Cl         Cl      0.20531   0.19554   0.03543  -0.02268
Cl         Cl      0.38252   0.86506   0.00727   0.00741
Cl         Cl      0.12868   0.05494   0.92488   0.02323
Cl         Cl      0.19583   0.03526   0.20567  -0.02300
Cl         Cl      0.86583   0.00659   0.38293   0.00616
Cl         Cl      0.05541   0.92419   0.12899   0.02100
Cl         Cl      0.03497   0.20539   0.19587  -0.02332
Cl         Cl      0.11736   0.49372   0.63418   0.00711
Cl         Cl      0.37143   0.57533   0.44369   0.02079
Cl         Cl      0.30185   0.29588   0.46239  -0.02486
Cl         Cl      0.63487   0.11723   0.49277   0.00661
Cl         Cl      0.44317   0.37050   0.57529   0.02261
Cl         Cl      0.46337   0.30220   0.29496  -0.02306
Cl         Cl      0.49272   0.63572   0.11808   0.00723
Cl         Cl      0.57499   0.44438   0.37153   0.01996
Cl         Cl      0.29606   0.46239   0.30131  -0.02567
O          O       0.80747   0.65462   0.13396  -0.53905
O          O       0.16002   0.69457   0.02501  -0.52285
O          O       0.09690   0.74604   0.12864  -0.52313
O          O       0.85820   0.61360   0.02073  -0.53286
O          O       0.65279   0.13426   0.80813  -0.54279
O          O       0.69522   0.02564   0.15950  -0.52142
O          O       0.74592   0.12957   0.09571  -0.52093
O          O       0.61304   0.02040   0.85838  -0.52984
O          O       0.13388   0.80804   0.65377  -0.53789
O          O       0.02573   0.16034   0.69565  -0.52706
O          O       0.13003   0.09553   0.74565  -0.52417
O          O       0.02063   0.85849   0.61278  -0.53120
O          O       0.84661   0.69080   0.36632  -0.54112
O          O       0.80424   0.33878   0.47650  -0.52338
O          O       0.75563   0.40305   0.37116  -0.52044
O          O       0.88891   0.64043   0.47891  -0.53319
O          O       0.36357   0.84357   0.69398  -0.53643
O          O       0.47678   0.80445   0.33972  -0.52411
O          O       0.37134   0.75583   0.40331  -0.51879
O          O       0.47425   0.88900   0.64361  -0.53508
O          O       0.69357   0.36527   0.84372  -0.53904
O          O       0.33936   0.47614   0.80433  -0.52424
O          O       0.40350   0.37096   0.75533  -0.52128
O          O       0.64043   0.47498   0.89063  -0.53556
O          O       0.19254   0.34527   0.86606  -0.53844
O          O       0.83981   0.30554   0.97548  -0.52248
O          O       0.90189   0.25407   0.87181  -0.52111
O          O       0.14180   0.38626   0.97932  -0.53346
O          O       0.34735   0.86576   0.19175  -0.54277
O          O       0.30504   0.97452   0.84042  -0.52047
O          O       0.25397   0.87071   0.90387  -0.51948
O          O       0.38687   0.97974   0.14155  -0.53011
O          O       0.86619   0.19206   0.34589  -0.53815
O          O       0.97430   0.83961   0.30449  -0.52656
O          O       0.87007   0.90440   0.25428  -0.52412
O          O       0.97930   0.14155   0.38714  -0.53056
O          O       0.15358   0.30907   0.63429  -0.54136
O          O       0.19568   0.66101   0.52346  -0.52368
O          O       0.24431   0.59684   0.62879  -0.52028
O          O       0.11142   0.35873   0.52157  -0.53414
O          O       0.63644   0.15655   0.30589  -0.53613
O          O       0.52319   0.19553   0.66026  -0.52420
O          O       0.62865   0.24414   0.59671  -0.51885
O          O       0.52591   0.11084   0.35649  -0.53428
O          O       0.30638   0.63476   0.15636  -0.53901
O          O       0.66061   0.52382   0.19569  -0.52377
O          O       0.59656   0.62902   0.24463  -0.52189
O          O       0.35953   0.52505   0.10940  -0.53477

