data_crystal

_audit_creation_method 'AiiDA-DDEC plugin'

_cell_length_a        14.33431
_cell_length_b        23.30175
_cell_length_c        26.19767

_cell_angle_alpha     85.18137
_cell_angle_beta     74.15461
_cell_angle_gamma     72.11001

_symmetry_space_group_name_Hall 'P 1'
_symmetry_space_group_name_H-M  'P 1'

loop_
_symmetry_equiv_pos_as_xyz
 'x,y,z'

loop_
_atom_site_label
_atom_site_type_symbol
_atom_site_fract_x
_atom_site_fract_y
_atom_site_fract_z
_atom_site_charge
Tb         Tb      0.08180   0.24997   0.83312   2.15181
Tb         Tb      0.66648   0.25018   0.66724   2.14811
Tb         Tb      0.91793   0.75012   0.16710   2.14548
Tb         Tb      0.33365   0.74988   0.33365   2.14688
Tb         Tb      0.83145   0.33702   0.74954   2.18170
Tb         Tb      0.41942   0.16058   0.74981   2.18175
Tb         Tb      0.16760   0.66577   0.25005   2.17735
Tb         Tb      0.58156   0.83656   0.25027   2.18089
H          H       0.76611   0.21659   0.77620   0.10390
H          H       0.62502   0.08882   0.86734   0.14772
H          H       0.86521   0.13147   0.91181   0.13324
H          H       0.53212   0.00796   0.03894   0.12289
H          H       0.55666   0.94143   0.11648   0.12576
H          H       0.88011   0.89504   0.05267   0.12076
H          H       0.85696   0.96427   0.97634   0.10254
H          H       0.79623   0.05936   0.95718   0.27454
H          H       0.45847   0.28309   0.77587   0.10504
H          H       0.50731   0.41094   0.86754   0.14862
H          H       0.22293   0.36781   0.91111   0.13262
H          H       0.42960   0.49143   0.03853   0.12221
H          H       0.32859   0.55782   0.11636   0.12634
H          H       0.06788   0.60485   0.05332   0.12044
H          H       0.16603   0.53572   0.97680   0.10250
H          H       0.24644   0.44000   0.95716   0.27552
H          H       0.01635   0.21630   0.72367   0.10404
H          H       0.28534   0.08887   0.63280   0.14467
H          H       0.00284   0.13102   0.58791   0.13259
H          H       0.46000   0.00811   0.46140   0.12080
H          H       0.50221   0.94169   0.38379   0.12581
H          H       0.22512   0.89494   0.44745   0.12093
H          H       0.17894   0.96427   0.52379   0.10220
H          H       0.14469   0.05952   0.54230   0.27453
H          H       0.25933   0.28258   0.72385   0.10588
H          H       0.08211   0.41122   0.63276   0.14466
H          H       0.40965   0.36725   0.58848   0.13260
H          H       0.07869   0.49167   0.46186   0.12155
H          H       0.11327   0.55789   0.38399   0.12693
H          H       0.32720   0.60517   0.44686   0.11988
H          H       0.29809   0.53596   0.52345   0.10157
H          H       0.31364   0.43972   0.54241   0.28375
H          H       0.23117   0.78432   0.22413   0.10190
H          H       0.37575   0.91033   0.13259   0.14788
H          H       0.13404   0.86943   0.08800   0.13361
H          H       0.46789   0.99255   0.96134   0.12283
H          H       0.44251   0.05851   0.88345   0.12582
H          H       0.11923   0.10465   0.94786   0.12019
H          H       0.14313   0.03588   0.02447   0.10269
H          H       0.20407   0.94094   0.04279   0.27607
H          H       0.54370   0.71618   0.22419   0.10387
H          H       0.49194   0.58993   0.13226   0.14477
H          H       0.77790   0.63114   0.08852   0.13336
H          H       0.57014   0.50833   0.96143   0.12259
H          H       0.67201   0.44194   0.88370   0.12735
H          H       0.93194   0.39549   0.94735   0.11987
H          H       0.83287   0.46464   0.02379   0.10290
H          H       0.75312   0.55953   0.04284   0.27504
H          H       0.98456   0.78447   0.27637   0.10322
H          H       0.71403   0.91064   0.36745   0.14429
H          H       0.99638   0.86980   0.41242   0.13218
H          H       0.53847   0.99246   0.53882   0.12227
H          H       0.49818   0.05796   0.61691   0.12537
H          H       0.77511   0.10444   0.55266   0.12058
H          H       0.81995   0.03595   0.47584   0.10229
H          H       0.85379   0.94125   0.45770   0.27539
H          H       0.74004   0.71626   0.27633   0.10478
H          H       0.91818   0.58948   0.36798   0.14414
H          H       0.59120   0.63079   0.41185   0.13384
H          H       0.92230   0.50764   0.53828   0.12191
H          H       0.88621   0.44148   0.61613   0.12771
H          H       0.67229   0.39527   0.55234   0.12090
H          H       0.70331   0.46429   0.47570   0.10266
H          H       0.68816   0.55947   0.45780   0.28271
C          C       0.89593   0.21330   0.83613   0.64068
C          C       0.82089   0.17901   0.84443  -0.02442
C          C       0.75924   0.18635   0.80990  -0.11768
C          C       0.68951   0.15351   0.81826  -0.02781
C          C       0.68057   0.11322   0.86071  -0.16603
C          C       0.74482   0.10458   0.89454   0.23727
C          C       0.81465   0.13756   0.88617  -0.18529
C          C       0.62540   0.16206   0.78037   0.66959
C          C       0.67238   0.03291   0.95786   0.46904
C          C       0.69245   0.99232   0.00354  -0.04027
C          C       0.60819   0.98480   0.04276  -0.09194
C          C       0.62188   0.94711   0.08594  -0.07317
C          C       0.72003   0.91487   0.08964  -0.03945
C          C       0.80455   0.92123   0.04981  -0.09317
C          C       0.79097   0.96041   0.00745  -0.13820
C          C       0.73520   0.87207   0.13464   0.67612
C          C       0.26951   0.28551   0.83519   0.64311
C          C       0.33515   0.32046   0.84389  -0.02469
C          C       0.43136   0.31339   0.80952  -0.11438
C          C       0.49240   0.34639   0.81800  -0.02754
C          C       0.45871   0.38645   0.86065  -0.16901
C          C       0.36059   0.39491   0.89438   0.23861
C          C       0.29928   0.36189   0.88568  -0.18630
C          C       0.59399   0.33840   0.77984   0.66996
C          C       0.36939   0.46673   0.95780   0.46764
C          C       0.30402   0.50726   0.00354  -0.03899
C          C       0.34962   0.51463   0.04263  -0.09158
C          C       0.29331   0.55219   0.08601  -0.07376
C          C       0.19138   0.58459   0.08997  -0.03899
C          C       0.14623   0.57835   0.05025  -0.09324
C          C       0.20157   0.53929   0.00774  -0.13761
C          C       0.13150   0.62769   0.13485   0.67449
C          C       0.88950   0.21229   0.66392   0.63887
C          C      -0.00095   0.17840   0.65551  -0.02453
C          C       0.05336   0.18616   0.68993  -0.11704
C          C       0.15599   0.15365   0.68161  -0.02618
C          C       0.20545   0.11327   0.63924  -0.16515
C          C       0.15008   0.10441   0.60537   0.23756
C          C       0.04716   0.13715   0.61366  -0.18518
C          C       0.21177   0.16252   0.71935   0.67181
C          C       0.29445   0.03228   0.54266   0.47020
C          C       0.31527   0.99232   0.49663  -0.04020
C          C       0.40707   0.98496   0.45748  -0.08818
C          C       0.43116   0.94728   0.41423  -0.07536
C          C       0.36548   0.91479   0.41053  -0.03967
C          C       0.27444   0.92122   0.45029  -0.09267
C          C       0.24872   0.96044   0.49264  -0.13827
C          C       0.39326   0.87170   0.36571   0.67820
C          C       0.44563   0.28539   0.66387   0.63905
C          C       0.34463   0.32016   0.65570  -0.02207
C          C       0.25570   0.31299   0.69027  -0.12116
C          C       0.16163   0.34614   0.68190  -0.02071
C          C       0.15524   0.38647   0.63943  -0.16753
C          C       0.24475   0.39494   0.60556   0.23722
C          C       0.33905   0.36165   0.61397  -0.18598
C          C       0.06757   0.33824   0.71979   0.66665
C          C       0.16349   0.46768   0.54290   0.46891
C          C       0.18874   0.50752   0.49666  -0.04162
C          C       0.13571   0.51478   0.45762  -0.09048
C          C       0.15435   0.55239   0.41424  -0.07436
C          C       0.22371   0.58494   0.41029  -0.03834
C          C       0.27533   0.57866   0.44991  -0.09263
C          C       0.25930   0.53949   0.49237  -0.13787
C          C       0.24024   0.62823   0.36552   0.67341
C          C       0.10072   0.78872   0.16375   0.63644
C          C       0.17720   0.82197   0.15560  -0.02428
C          C       0.23894   0.81415   0.19019  -0.11722
C          C       0.30975   0.84627   0.18187  -0.02866
C          C       0.31973   0.88628   0.13924  -0.16551
C          C       0.25541   0.89539   0.10536   0.23792
C          C       0.18465   0.86308   0.11370  -0.18483
C          C       0.37321   0.83756   0.22026   0.67124
C          C       0.32793   0.96720   0.04240   0.46971
C          C       0.30762   0.00798   0.99692  -0.04010
C          C       0.39168   0.01550   0.95754  -0.08997
C          C       0.37751   0.05284   0.91419  -0.07413
C          C       0.27916   0.08477   0.91052  -0.04101
C          C       0.19491   0.07856   0.95064  -0.09141
C          C       0.20892   0.03968   0.99315  -0.13948
C          C       0.26393   0.12675   0.86500   0.67540
C          C       0.73394   0.71229   0.16475   0.64124
C          C       0.66666   0.67863   0.15593  -0.02199
C          C       0.57031   0.68633   0.19028  -0.12002
C          C       0.50824   0.65408   0.18176  -0.02581
C          C       0.54108   0.61407   0.13913  -0.16466
C          C       0.63936   0.60506   0.10542   0.23885
C          C       0.70155   0.63745   0.11404  -0.18776
C          C       0.40667   0.66269   0.22025   0.66926
C          C       0.62974   0.53328   0.04230   0.46837
C          C       0.69531   0.49268   0.99667  -0.03893
C          C       0.65013   0.48521   0.95746  -0.09101
C          C       0.70687   0.44758   0.91421  -0.07408
C          C       0.80870   0.41522   0.91052  -0.04148
C          C       0.85352   0.42171   0.95030  -0.09169
C          C       0.79778   0.46086   0.99270  -0.13897
C          C       0.86861   0.37222   0.86559   0.67768
C          C       0.11046   0.78837   0.33633   0.64345
C          C       0.00083   0.82214   0.34476  -0.02405
C          C       0.94686   0.81442   0.31016  -0.11753
C          C       0.84410   0.84663   0.31831  -0.02556
C          C       0.79406   0.88655   0.36093  -0.16521
C          C       0.84918   0.89565   0.39486   0.23774
C          C       0.95235   0.86338   0.38662  -0.18489
C          C       0.78946   0.83810   0.27986   0.66967
C          C       0.70405   0.96789   0.45740   0.46759
C          C       0.68341   0.00801   0.50331  -0.04121
C          C       0.59187   0.01529   0.54268  -0.09032
C          C       0.56882   0.05241   0.58617  -0.07639
C          C       0.63525   0.08436   0.58981  -0.03824
C          C       0.72567   0.07829   0.54975  -0.09323
C          C       0.75047   0.03959   0.50717  -0.13754
C          C       0.60886   0.12666   0.63500   0.67571
C          C       0.55382   0.71219   0.33625   0.63838
C          C       0.65500   0.67841   0.34458  -0.02196
C          C       0.74353   0.68624   0.31015  -0.12076
C          C       0.83794   0.65405   0.31859  -0.02278
C          C       0.84507   0.61379   0.36105  -0.16612
C          C       0.75595   0.60464   0.39476   0.23738
C          C       0.66131   0.63705   0.38635  -0.18760
C          C       0.93088   0.66310   0.28043   0.66682
C          C       0.83827   0.53194   0.45705   0.46760
C          C       0.81271   0.49202   0.50304  -0.03933
C          C       0.86523   0.48464   0.54227  -0.09047
C          C       0.84573   0.44714   0.58558  -0.07602
C          C       0.77593   0.41498   0.58918  -0.03883
C          C       0.72465   0.42144   0.54939  -0.09225
C          C       0.74171   0.46047   0.50698  -0.13969
C          C       0.75819   0.37211   0.63403   0.67578
N          N       0.74366   0.06324   0.93681  -0.37240
N          N       0.31935   0.43618   0.93680  -0.37418
N          N       0.19299   0.06323   0.56301  -0.37101
N          N       0.24454   0.43630   0.56324  -0.38035
N          N       0.25677   0.93678   0.06317  -0.37376
N          N       0.68010   0.56368   0.06318  -0.37286
N          N       0.80564   0.93694   0.43714  -0.37289
N          N       0.75697   0.56331   0.43700  -0.37734
O          O       0.95906   0.19972   0.86457  -0.64320
O          O       0.89791   0.25423   0.80001  -0.74015
O          O       0.65372   0.18736   0.73641  -0.71469
O          O       0.54552   0.14495   0.79324  -0.68077
O          O       0.59767   0.03916   0.94074  -0.44753
O          O       0.66223   0.88005   0.17719  -0.71607
O          O       0.81951   0.83059   0.12737  -0.67794
O          O       0.17676   0.29992   0.86203  -0.64755
O          O       0.30661   0.24341   0.80019  -0.73409
O          O       0.60879   0.31440   0.73535  -0.71573
O          O       0.66165   0.35481   0.79283  -0.68283
O          O       0.46111   0.46073   0.94060  -0.44752
O          O       0.16191   0.62012   0.17740  -0.71248
O          O       0.05459   0.66922   0.12738  -0.67967
O          O       0.83904   0.19736   0.63678  -0.64028
O          O       0.84743   0.25441   0.69899  -0.74131
O          O       0.15870   0.18818   0.76331  -0.71841
O          O       0.30883   0.14504   0.70625  -0.68326
O          O       0.36265   0.03722   0.56074  -0.44744
O          O       0.45683   0.88013   0.32270  -0.71581
O          O       0.35201   0.82938   0.37366  -0.67912
O          O       0.52345   0.30012   0.63675  -0.64320
O          O       0.45213   0.24306   0.69868  -0.73688
O          O       0.07550   0.31455   0.76452  -0.71505
O          O       0.98410   0.35454   0.70613  -0.68235
O          O       0.07706   0.46304   0.56100  -0.44618
O          O       0.21930   0.62006   0.32253  -0.70896
O          O       0.27351   0.67055   0.37359  -0.68112
O          O       0.03764   0.80286   0.13534  -0.63472
O          O       0.09752   0.74772   0.19990  -0.74575
O          O       0.34307   0.81316   0.26447  -0.71198
O          O       0.45372   0.85414   0.20753  -0.68301
O          O       0.40274   0.96077   0.05948  -0.44829
O          O       0.33680   0.11749   0.82236  -0.71401
O          O       0.18003   0.16861   0.87193  -0.67988
O          O       0.82640   0.69740   0.13775  -0.63978
O          O       0.69875   0.75420   0.20004  -0.74167
O          O       0.39348   0.68567   0.26497  -0.71239
O          O       0.33774   0.64772   0.20711  -0.68252
O          O       0.53794   0.53950   0.05947  -0.44784
O          O       0.83841   0.38023   0.82297  -0.71452
O          O       0.94526   0.33041   0.87293  -0.68018
O          O       0.16094   0.80293   0.36358  -0.63892
O          O       0.15278   0.74635   0.30112  -0.74542
O          O       0.84396   0.81421   0.23553  -0.71030
O          O       0.69237   0.85423   0.29271  -0.68333
O          O       0.63569   0.96270   0.43957  -0.44546
O          O       0.54646   0.11728   0.67813  -0.71715
O          O       0.64992   0.16898   0.62736  -0.67466
O          O       0.47650   0.69721   0.36358  -0.63945
O          O       0.54649   0.75428   0.30112  -0.74151
O          O       0.92104   0.68612   0.23573  -0.71165
O          O       0.01447   0.64852   0.29377  -0.68032
O          O       0.92469   0.53665   0.43898  -0.44695
O          O       0.78039   0.38004   0.67672  -0.71609
O          O       0.72255   0.33070   0.62649  -0.67675

