data_crystal

_audit_creation_method 'AiiDA-DDEC plugin'

_cell_length_a        13.86968
_cell_length_b        20.61590
_cell_length_c        25.27396

_cell_angle_alpha     87.38128
_cell_angle_beta     74.25420
_cell_angle_gamma     80.64491

_symmetry_space_group_name_Hall 'P 1'
_symmetry_space_group_name_H-M  'P 1'

loop_
_symmetry_equiv_pos_as_xyz
 'x,y,z'

loop_
_atom_site_label
_atom_site_type_symbol
_atom_site_fract_x
_atom_site_fract_y
_atom_site_fract_z
_atom_site_charge
Co         Co      0.84087   0.62101   0.62338   0.92805
Co         Co      0.19190   0.68603   0.21908   0.92175
Co         Co      0.53514   0.87843   0.62354   0.92214
Co         Co      0.58575   0.81385   0.22177   0.92000
Co         Co      0.15873   0.37859   0.37674   0.92342
Co         Co      0.80726   0.31392   0.78091   0.92182
Co         Co      0.46437   0.12026   0.37691   0.92462
Co         Co      0.41455   0.18437   0.77986   0.91780
Co         Co      0.40386   0.74982   0.19037   1.15456
Co         Co      0.68353   0.74991   0.63362   1.12544
Co         Co      0.59422   0.24877   0.81052   1.15165
Co         Co      0.31658   0.24977   0.36653   1.12756
H          H       0.43919   0.69468   0.31190   0.12402
H          H       0.55059   0.67786   0.53243   0.12552
H          H       0.45880   0.62969   0.47487   0.13419
H          H       0.54810   0.64047   0.37045   0.13655
H          H       0.49159   0.68726   0.78103   0.12557
H          H       0.27915   0.52865   0.33500   0.12223
H          H       0.80082   0.52054   0.48522   0.12424
H          H       0.38694   0.47508   0.39441   0.12868
H          H       0.88784   0.97656   0.27867   0.13608
H          H       0.26220   0.93353   0.20093   0.11607
H          H       0.13583   0.16364   0.36819   0.11979
H          H       0.54712   0.61706   0.93864   0.13102
H          H       0.17289   0.04848   0.22183   0.11600
H          H       0.29720   0.50919   0.99245   0.13609
H          H       0.70455   0.50737   0.75577   0.12221
H          H       0.39881   0.64480   0.87232   0.13368
H          H       0.08021   0.06872   0.33273   0.12722
H          H       0.49601   0.67351   0.03020   0.12613
H          H       0.24436   0.56767   0.08341   0.12304
H          H       0.61129   0.46498   0.84624   0.13116
H          H       0.99053   0.29656   0.26684   0.12284
H          H       0.71144   0.47400   0.42477   0.13714
H          H       0.97876   0.86070   0.25770   0.12064
H          H       0.94010   0.20010   0.22838   0.13034
H          H       0.24411   0.80661   0.31344   0.12440
H          H       0.91820   0.82291   0.53228   0.12713
H          H       0.06550   0.87242   0.47498   0.13361
H          H       0.07748   0.86184   0.37078   0.13473
H          H       0.72629   0.81104   0.78054   0.12106
H          H       0.38346   0.97138   0.33689   0.12417
H          H       0.71192   0.97943   0.48596   0.12385
H          H       0.21699   0.02603   0.39516   0.12797
H          H       0.83369   0.52314   0.27924   0.13638
H          H       0.53655   0.56587   0.20114   0.11755
H          H       0.49424   0.33680   0.36912   0.11947
H          H       0.51566   0.88117   0.93914   0.13167
H          H       0.60521   0.45104   0.22216   0.11751
H          H       0.71140   0.98903   0.99375   0.13786
H          H       0.53968   0.99217   0.75658   0.12319
H          H       0.73048   0.85189   0.87194   0.13437
H          H       0.58636   0.43120   0.33387   0.12621
H          H       0.47255   0.82630   0.03144   0.12738
H          H       0.67036   0.93212   0.08547   0.12295
H          H       0.54497   0.03297   0.84729   0.12977
H          H       0.73838   0.20328   0.26808   0.12251
H          H       0.85973   0.02736   0.42560   0.13778
H          H       0.76340   0.63893   0.25793   0.12206
H          H       0.82844   0.29903   0.22979   0.13417
H          H       0.55877   0.30653   0.68824   0.12473
H          H       0.45101   0.32298   0.46773   0.12572
H          H       0.54196   0.37205   0.52515   0.13393
H          H       0.45092   0.36093   0.62942   0.13692
H          H       0.50592   0.31173   0.21952   0.12122
H          H       0.71976   0.47205   0.66561   0.12174
H          H       0.19957   0.47951   0.51399   0.12384
H          H       0.61370   0.52562   0.60548   0.12690
H          H       0.11303   0.02389   0.72090   0.13816
H          H       0.73881   0.06617   0.79939   0.11729
H          H       0.86358   0.83641   0.63193   0.12090
H          H       0.45267   0.38161   0.06156   0.13089
H          H       0.82822   0.95143   0.77790   0.11649
H          H       0.70272   0.48956   0.00771   0.13790
H          H       0.29487   0.49230   0.24407   0.12153
H          H       0.60005   0.35347   0.12826   0.13448
H          H       0.92009   0.93128   0.66685   0.12691
H          H       0.50317   0.32580   0.96975   0.12634
H          H       0.75460   0.43170   0.91652   0.12436
H          H       0.38933   0.53417   0.15352   0.12995
H          H       0.00920   0.70365   0.73320   0.12625
H          H       0.28777   0.52706   0.57436   0.13762
H          H       0.02166   0.13957   0.74242   0.12301
H          H       0.06046   0.80000   0.77111   0.13436
H          H       0.75399   0.19361   0.68739   0.12561
H          H       0.08426   0.17754   0.46756   0.12600
H          H       0.93541   0.12939   0.52497   0.13471
H          H       0.92098   0.13952   0.62929   0.13288
H          H       0.27174   0.18759   0.21866   0.12244
H          H       0.61750   0.02712   0.66466   0.12417
H          H       0.28756   0.02009   0.51506   0.12419
H          H       0.78437   0.97381   0.60553   0.12777
H          H       0.16731   0.47457   0.71972   0.13558
H          H       0.46358   0.43239   0.79826   0.11652
H          H       0.50419   0.66346   0.63133   0.11970
H          H       0.48375   0.11544   0.06229   0.13047
H          H       0.39565   0.54704   0.77672   0.11575
H          H       0.28718   0.00877   0.00728   0.13807
H          H       0.45934   0.00791   0.24490   0.12221
H          H       0.26897   0.14472   0.12758   0.13419
H          H       0.41333   0.56819   0.66553   0.12649
H          H       0.52633   0.17132   0.97045   0.12803
H          H       0.32745   0.06674   0.91609   0.12363
H          H       0.45588   0.96517   0.15448   0.13015
H          H       0.25774   0.79500   0.73282   0.12226
H          H       0.13802   0.97349   0.57552   0.13828
H          H       0.23719   0.35890   0.74138   0.11982
H          H       0.16917   0.69824   0.77026   0.13427
C          C       0.35272   0.61520   0.31967  -0.07001
C          C       0.12584   0.89041   0.22759  -0.06287
C          C       0.36671   0.62448   0.06206  -0.07049
C          C       0.68150   0.60227   0.51208  -0.06759
C          C       0.66215   0.62690   0.71020   0.59451
C          C       0.42809   0.64675   0.33025  -0.05378
C          C       0.60387   0.60021   0.76274  -0.06636
C          C       0.47275   0.55478   0.38563   0.26578
C          C       0.58527   0.63332   0.50871  -0.06498
C          C       0.53435   0.60693   0.47647  -0.21272
C          C       0.42343   0.56083   0.96072   0.26494
C          C       0.48845   0.61680   0.36311  -0.22413
C          C       0.51738   0.63889   0.79577  -0.07306
C          C       0.33733   0.55323   0.34310  -0.06100
C          C       0.50067   0.55268   0.86389   0.26370
C          C       0.33639   0.65883   0.11577   0.58911
C          C       0.73041   0.62870   0.55017   0.58619
C          C       0.06601   0.23549   0.31969  -0.06656
C          C       0.72677   0.54447   0.48201  -0.06936
C          C       0.39737   0.52295   0.37590  -0.20452
C          C       0.96958   0.96599   0.26168  -0.20941
C          C       0.58138   0.54981   0.44621   0.26132
C          C       0.18043   0.94337   0.21797  -0.05828
C          C       0.09249   0.17120   0.33786  -0.04923
C          C       0.48101   0.60666   0.97044  -0.22793
C          C       0.13083   0.00737   0.22969  -0.21388
C          C       0.00734   0.13004   0.27856   0.27348
C          C       0.33909   0.54565   0.00133  -0.20697
C          C       0.63720   0.53723   0.78094  -0.06531
C          C       0.46572   0.61542   0.84634  -0.21308
C          C       0.06256   0.11832   0.31787  -0.21677
C          C       0.02537   0.01804   0.25109   0.26098
C          C       0.45250   0.63800   0.02126  -0.06107
C          C       0.31058   0.57790   0.05160  -0.07692
C          C       0.58572   0.51325   0.83134  -0.19778
C          C       0.01025   0.24649   0.28040  -0.06842
C          C       0.67739   0.51838   0.44873  -0.20442
C          C       0.02022   0.90211   0.24983  -0.07202
C          C       0.98204   0.19364   0.25933  -0.21167
C          C       0.18148   0.82277   0.21511   0.59588
C          C       0.29254   0.64598   0.28307   0.57868
C          C       0.09554   0.29062   0.34256   0.57450
C          C       0.32433   0.88536   0.32124  -0.06764
C          C       0.64616   0.60921   0.22798  -0.06532
C          C       0.57002   0.87515   0.06358  -0.07518
C          C       0.80601   0.89793   0.51255  -0.06521
C          C       0.62610   0.87289   0.71032   0.59237
C          C       0.23769   0.85459   0.33145  -0.05516
C          C       0.63239   0.89863   0.76309  -0.06520
C          C       0.13840   0.94723   0.38603   0.26088
C          C       0.90609   0.86773   0.50894  -0.07134
C          C       0.98818   0.89495   0.47677  -0.20943
C          C       0.61747   0.93715   0.96148   0.26635
C          C       0.14469   0.88520   0.36366  -0.22001
C          C       0.68630   0.85924   0.79576  -0.06841
C          C       0.31679   0.94733   0.34452  -0.06588
C          C       0.63718   0.94457   0.86431   0.26242
C          C       0.54587   0.84096   0.11737   0.59169
C          C       0.72065   0.86958   0.55028   0.58954
C          C       0.61121   0.26455   0.32088  -0.07115
C          C       0.78939   0.95599   0.48277  -0.06948
C          C       0.22414   0.97830   0.37669  -0.19988
C          C       0.76878   0.53352   0.26219  -0.20869
C          C       0.97007   0.95215   0.44659   0.26194
C          C       0.60133   0.55617   0.21829  -0.05996
C          C       0.56771   0.32898   0.33890  -0.05029
C          C       0.54939   0.89185   0.97123  -0.23028
C          C       0.63937   0.49217   0.23009  -0.21313
C          C       0.71274   0.36964   0.27976   0.27441
C          C       0.66017   0.95289   0.00255  -0.21099
C          C       0.58186   0.96160   0.78157  -0.06857
C          C       0.68881   0.88186   0.84641  -0.21372
C          C       0.61849   0.38161   0.31901  -0.21318
C          C       0.72349   0.48143   0.25165   0.25898
C          C       0.52567   0.86136   0.02243  -0.05995
C          C       0.63692   0.92147   0.05324  -0.07418
C          C       0.58431   0.98468   0.83206  -0.19482
C          C       0.70588   0.25334   0.28168  -0.06594
C          C       0.87105   0.98291   0.44948  -0.20584
C          C       0.72982   0.59743   0.25019  -0.07304
C          C       0.75594   0.30588   0.26072  -0.21597
C          C       0.60208   0.67699   0.21606   0.59940
C          C       0.42112   0.85403   0.28519   0.57464
C          C       0.55907   0.20936   0.34406   0.57242
C          C       0.64521   0.38596   0.68116  -0.06945
C          C       0.87478   0.10961   0.77249  -0.06796
C          C       0.63229   0.37492   0.93797  -0.07250
C          C       0.31981   0.39801   0.48748  -0.06801
C          C       0.33532   0.37301   0.28981   0.59282
C          C       0.57013   0.35453   0.67009  -0.05580
C          C       0.39437   0.39909   0.23727  -0.06442
C          C       0.52636   0.44670   0.61449   0.26157
C          C       0.41613   0.36766   0.49117  -0.06680
C          C       0.46647   0.39467   0.52337  -0.21332
C          C       0.57616   0.43815   0.03944   0.26332
C          C       0.51029   0.38467   0.63698  -0.22343
C          C       0.48079   0.36011   0.20450  -0.06979
C          C       0.66133   0.44773   0.65751  -0.06034
C          C       0.49901   0.44619   0.13622   0.26184
C          C       0.66257   0.34069   0.88423   0.59003
C          C       0.27165   0.36988   0.44977   0.58899
C          C       0.93348   0.76449   0.68026  -0.06416
C          C       0.27379   0.45595   0.51726  -0.06872
C          C       0.60211   0.47807   0.62432  -0.20071
C          C       0.03128   0.03418   0.73811  -0.20957
C          C       0.41873   0.45183   0.55346   0.26411
C          C       0.82051   0.05650   0.78210  -0.05699
C          C       0.90736   0.82884   0.66206  -0.05270
C          C       0.51853   0.39232   0.02972  -0.22458
C          C       0.87025   0.99257   0.77019  -0.21270
C          C       0.99337   0.87005   0.72103   0.27606
C          C       0.66046   0.45336  -0.00119  -0.21065
C          C       0.36199   0.46219   0.21898  -0.06704
C          C       0.53323   0.38330   0.15394  -0.21529
C          C       0.93798   0.88172   0.68177  -0.21635
C          C       0.97571   0.98198   0.74877   0.25884
C          C       0.54672   0.36122   0.97880  -0.06294
C          C       0.68858   0.42138   0.94843  -0.07506
C          C       0.41412   0.48586   0.16862  -0.19527
C          C       0.98966   0.75360   0.71939  -0.07254
C          C       0.32260   0.48266   0.55056  -0.20620
C          C       0.98041   0.09804   0.75014  -0.07312
C          C       0.01851   0.80640   0.74017  -0.21673
C          C       0.81855   0.17719   0.78484   0.59692
C          C       0.70491   0.35526   0.71806   0.57597
C          C       0.90428   0.70908   0.65735   0.57017
C          C       0.67543   0.11389   0.67987  -0.06644
C          C       0.35386   0.38889   0.77178  -0.06706
C          C       0.42880   0.12297   0.93795  -0.07143
C          C       0.19482   0.10186   0.48803  -0.06739
C          C       0.37171   0.12705   0.28985   0.59354
C          C       0.76116   0.14561   0.66925  -0.05777
C          C       0.36565   0.10050   0.23732  -0.06572
C          C       0.86106   0.05369   0.61418   0.26191
C          C       0.09530   0.13287   0.49127  -0.06729
C          C       0.01241   0.10645   0.52347  -0.21168
C          C       0.38187   0.05988   0.03968   0.26454
C          C       0.85416   0.11576   0.63655  -0.21909
C          C       0.31193   0.13915   0.20415  -0.06893
C          C       0.68356   0.05183   0.65662  -0.06391
C          C       0.36237   0.05266   0.13656   0.26241
C          C       0.45342   0.15724   0.88415   0.58915
C          C       0.28130   0.12853   0.45003   0.58651
C          C       0.38602   0.73474   0.67999  -0.06660
C          C       0.21036   0.04397   0.51814  -0.06820
C          C       0.77620   0.02171   0.62393  -0.20033
C          C       0.23203   0.46421   0.73689  -0.20824
C          C       0.02955   0.04923   0.55379   0.26371
C          C       0.39875   0.44207   0.78113  -0.05690
C          C       0.43061   0.67064   0.66145  -0.05047
C          C       0.44984   0.10522   0.03013  -0.22558
C          C       0.36105   0.50604   0.76894  -0.21262
C          C       0.28623   0.62868   0.71977   0.27220
C          C       0.33851   0.04486   0.99868  -0.21006
C          C       0.41700   0.03752   0.21948  -0.06595
C          C       0.31020   0.11549   0.15371  -0.21317
C          C       0.38069   0.61756   0.68073  -0.21295
C          C       0.27706   0.51651   0.74723   0.25928
C          C       0.47330   0.13623   0.97918  -0.06459
C          C       0.36149   0.07686   0.94820  -0.07500
C          C       0.41546   0.01342   0.16919  -0.19543
C          C       0.29107   0.74512   0.71897  -0.06971
C          C       0.12800   0.01786   0.55138  -0.20695
C          C       0.27068   0.40040   0.74919  -0.07045
C          C       0.24183   0.69203   0.73942  -0.21368
C          C       0.39750   0.32142   0.78467   0.59972
C          C       0.57892   0.14450   0.71632   0.58065
C          C       0.43807   0.79027   0.65761   0.57652
O          O       0.31413   0.69775   0.25464  -0.60778
O          O       0.63291   0.68514   0.69619  -0.57883
O          O       0.21450   0.62259   0.27794  -0.53016
O          O       0.68743   0.68232   0.57458  -0.57518
O          O       0.39474   0.69388   0.12679  -0.54831
O          O       0.12773   0.77524   0.22751  -0.57022
O          O       0.53362   0.51883   0.41533  -0.20966
O          O       0.24866   0.64955   0.14823  -0.57420
O          O       0.74124   0.58801   0.68264  -0.55540
O          O       0.81206   0.59367   0.55817  -0.55978
O          O       0.44832   0.52558   0.91233  -0.20935
O          O       0.96948   0.08096   0.25911  -0.20711
O          O       0.27602   0.81535   0.19329  -0.57201
O          O       0.15726   0.27948   0.37401  -0.60328
O          O       0.06242   0.35088   0.33441  -0.52158
O          O       0.42781   0.80235   0.25672  -0.60577
O          O       0.66740   0.81459   0.69601  -0.57764
O          O       0.50438   0.87713   0.28056  -0.53043
O          O       0.74230   0.81586   0.57410  -0.57662
O          O       0.47707   0.80555   0.12740  -0.54935
O          O       0.64383   0.72457   0.22810  -0.57091
O          O       0.04783   0.98356   0.41527  -0.21080
O          O       0.59962   0.85051   0.15070  -0.57465
O          O       0.57629   0.91263   0.68222  -0.55266
O          O       0.62996   0.90290   0.55790  -0.56273
O          O       0.64275   0.97134   0.91257  -0.20947
O          O       0.77091   0.41828   0.25971  -0.20823
O          O       0.52783   0.68449   0.19531  -0.57251
O          O       0.46649   0.22003   0.37568  -0.59871
O          O       0.60062   0.14910   0.33594  -0.52218
O          O       0.68517   0.30236   0.74529  -0.60491
O          O       0.36251   0.31469   0.30424  -0.57836
O          O       0.78106   0.37991   0.72442  -0.53104
O          O       0.31561   0.31594   0.42623  -0.57637
O          O       0.60470   0.30527   0.87325  -0.54903
O          O       0.87207   0.22486   0.77249  -0.57063
O          O       0.46589   0.48309   0.58461  -0.21038
O          O       0.74993   0.35037   0.85175  -0.57278
O          O       0.25716   0.41251   0.31752  -0.55359
O          O       0.18916   0.40381   0.44185  -0.56255
O          O       0.55128   0.47353   0.08783  -0.20801
O          O       0.03148   0.91895   0.74069  -0.20932
O          O       0.72395   0.18444   0.80641  -0.57186
O          O       0.84299   0.71982   0.62556  -0.60153
O          O       0.93762   0.64894   0.66573  -0.52152
O          O       0.57174   0.19728   0.74359  -0.60837
O          O       0.32826   0.18512   0.30384  -0.57724
O          O       0.49646   0.11992   0.72227  -0.53248
O          O       0.26226   0.18211   0.42550  -0.57421
O          O       0.52389   0.19137   0.87329  -0.55051
O          O       0.35709   0.27330   0.77230  -0.57003
O          O       0.95159   0.01786   0.58470  -0.21074
O          O       0.39820   0.14898   0.85131  -0.57201
O          O       0.42348   0.08798   0.31745  -0.55605
O          O       0.37096   0.09367   0.44220  -0.56033
O          O       0.35748   0.02523   0.08841  -0.20793
O          O       0.22910   0.57919   0.73828  -0.20687
O          O       0.47018   0.31485   0.80673  -0.57337
O          O       0.53117   0.77945   0.62652  -0.60187
O          O       0.39672   0.85051   0.66576  -0.52191

