data_crystal

_audit_creation_method 'AiiDA-DDEC plugin'

_cell_length_a        15.51200
_cell_length_b        19.48139
_cell_length_c        25.35528

_cell_angle_alpha     90.00900
_cell_angle_beta     89.97107
_cell_angle_gamma     89.92604

_symmetry_space_group_name_Hall 'P 1'
_symmetry_space_group_name_H-M  'P 1'

loop_
_symmetry_equiv_pos_as_xyz
 'x,y,z'

loop_
_atom_site_label
_atom_site_type_symbol
_atom_site_fract_x
_atom_site_fract_y
_atom_site_fract_z
_atom_site_charge
Zn         Zn      0.04915   0.83914   0.23031   0.76929
Zn         Zn      0.02402   0.96647   0.45184   0.85822
Zn         Zn      0.45238   0.15861   0.72977   0.76820
Zn         Zn      0.47437   0.03355   0.95225   0.85857
Zn         Zn      0.95113   0.34126   0.76906   0.76684
Zn         Zn      0.97612   0.46672   0.54757   0.85320
Zn         Zn      0.54770   0.65829   0.27005   0.76513
Zn         Zn      0.52543   0.53358   0.04680   0.85251
Zn         Zn      0.95085   0.16086   0.76969   0.76912
Zn         Zn      0.97598   0.03353   0.54816   0.85821
Zn         Zn      0.54762   0.84139   0.27023   0.76821
Zn         Zn      0.52562   0.96645   0.04775   0.85849
Zn         Zn      0.04886   0.65873   0.23095   0.76688
Zn         Zn      0.02388   0.53327   0.45244   0.85324
Zn         Zn      0.45230   0.34171   0.72996   0.76496
Zn         Zn      0.47457   0.46642   0.95320   0.85257
Zn         Zn      0.17801   0.74871   0.30771   0.73042
Zn         Zn      0.32275   0.25125   0.80592   0.73113
Zn         Zn      0.82198   0.25128   0.69230   0.73048
Zn         Zn      0.67725   0.74875   0.19409   0.73111
H          H       0.89932   0.94794   0.32479   0.16795
H          H       0.97083   0.01578   0.34013   0.17647
H          H       0.97272   0.97796   0.27549   0.15397
H          H       0.23006   0.80869   0.41622   0.13859
H          H       0.20013   0.88615   0.45021   0.17337
H          H       0.13726   0.81198   0.45849   0.17384
H          H       0.96469   0.86097   0.65070   0.11173
H          H       0.00838   0.99073   0.09835   0.11953
H          H       0.04759   0.05279   0.01549   0.10904
H          H       0.19971   0.04973   0.98318   0.11143
H          H       0.27215   0.92710   0.11659   0.12074
H          H       0.28377   0.88907   0.25788   0.17514
H          H       0.38188   0.91224   0.29104   0.16693
H          H       0.28941   0.88781   0.32785   0.15971
H          H       0.60114   0.05190   0.82490   0.16715
H          H       0.52969   0.98393   0.84021   0.17648
H          H       0.52780   0.02187   0.77563   0.15244
H          H       0.27008   0.19195   0.91563   0.13828
H          H       0.29911   0.11424   0.94947   0.17231
H          H       0.36233   0.18805   0.95828   0.17391
H          H       0.53605   0.13908   0.15168   0.11458
H          H       0.49240   0.00910   0.59702   0.11881
H          H       0.45217   0.94633   0.51466   0.10708
H          H       0.29984   0.94990   0.48284   0.10806
H          H       0.22878   0.07258   0.61656   0.12138
H          H       0.21613   0.11046   0.75809   0.17409
H          H       0.11764   0.08771   0.79114   0.16918
H          H       0.21008   0.11216   0.82800   0.15991
H          H       0.10124   0.44846   0.67486   0.16799
H          H       0.03044   0.51698   0.65958   0.17737
H          H       0.02822   0.47909   0.72419   0.15370
H          H       0.77070   0.30969   0.58398   0.13796
H          H       0.80012   0.38687   0.54950   0.17227
H          H       0.86365   0.31279   0.54182   0.17362
H          H       0.03536   0.36081   0.34932   0.11373
H          H       0.99150   0.49093   0.90185   0.11935
H          H       0.95211   0.55296   0.98472   0.10911
H          H       0.80005   0.54979   0.01710   0.11191
H          H       0.72791   0.42720   0.88365   0.12145
H          H       0.71572   0.39027   0.74224   0.17383
H          H       0.61752   0.41346   0.70911   0.16786
H          H       0.71001   0.38899   0.67229   0.15941
H          H       0.39827   0.55133   0.17469   0.16745
H          H       0.46914   0.48285   0.15935   0.17641
H          H       0.47115   0.52062   0.22400   0.15288
H          H       0.72916   0.69099   0.08462   0.13814
H          H       0.70066   0.61355   0.05031   0.17156
H          H       0.63675   0.68723   0.04210   0.17421
H          H       0.46388   0.63911   0.84838   0.11413
H          H       0.50769   0.50888   0.40315   0.11967
H          H       0.54799   0.44616   0.48555   0.10727
H          H       0.70021   0.44980   0.51751   0.10956
H          H       0.77117   0.57235   0.38383   0.12118
H          H       0.78441   0.60932   0.24203   0.17413
H          H       0.88304   0.58668   0.20898   0.16748
H          H       0.79051   0.61103   0.17211   0.15978
H          H       0.10068   0.05206   0.67521   0.16778
H          H       0.02917   0.98422   0.65987   0.17633
H          H       0.02727   0.02204   0.72451   0.15418
H          H       0.76994   0.19131   0.58378   0.13875
H          H       0.79987   0.11385   0.54979   0.17346
H          H       0.86274   0.18801   0.54151   0.17369
H          H       0.03530   0.13903   0.34931   0.11403
H          H       0.99162   0.00926   0.90165   0.11940
H          H       0.95241   0.94721   0.98452   0.10902
H          H       0.80029   0.95027   0.01683   0.11151
H          H       0.72784   0.07290   0.88342   0.12078
H          H       0.71623   0.11093   0.74212   0.17511
H          H       0.61811   0.08776   0.70896   0.16711
H          H       0.71058   0.11219   0.67215   0.15963
H          H       0.39885   0.94810   0.17510   0.16748
H          H       0.47031   0.01606   0.15979   0.17639
H          H       0.47219   0.97813   0.22437   0.15246
H          H       0.72991   0.80805   0.08437   0.13818
H          H       0.70088   0.88576   0.05053   0.17202
H          H       0.63767   0.81195   0.04172   0.17394
H          H       0.46394   0.86092   0.84832   0.11443
H          H       0.50759   0.99090   0.40298   0.11897
H          H       0.54783   0.05367   0.48534   0.10723
H          H       0.70016   0.05010   0.51716   0.10795
H          H       0.77121   0.92742   0.38344   0.12130
H          H       0.78386   0.88954   0.24191   0.17419
H          H       0.88235   0.91229   0.20887   0.16895
H          H       0.78991   0.88784   0.17200   0.15990
H          H       0.89876   0.55154   0.32514   0.16818
H          H       0.96956   0.48302   0.34042   0.17754
H          H       0.97178   0.52091   0.27582   0.15362
H          H       0.22930   0.69031   0.41602   0.13770
H          H       0.19987   0.61313   0.45051   0.17218
H          H       0.13634   0.68721   0.45818   0.17369
H          H       0.96464   0.63919   0.65068   0.11379
H          H       0.00850   0.50907   0.09815   0.11949
H          H       0.04788   0.44704   0.01528   0.10921
H          H       0.19995   0.45021   0.98290   0.11174
H          H       0.27208   0.57279   0.11635   0.12140
H          H       0.28428   0.60973   0.25776   0.17389
H          H       0.38248   0.58654   0.29090   0.16787
H          H       0.28998   0.61101   0.32771   0.15954
H          H       0.60172   0.44867   0.82531   0.16736
H          H       0.53086   0.51715   0.84065   0.17640
H          H       0.52884   0.47938   0.77600   0.15282
H          H       0.27083   0.30901   0.91538   0.13823
H          H       0.29933   0.38645   0.94969   0.17148
H          H       0.36324   0.31277   0.95790   0.17419
H          H       0.53611   0.36089   0.15162   0.11408
H          H       0.49231   0.49112   0.59685   0.11942
H          H       0.45201   0.55384   0.51446   0.10723
H          H       0.29979   0.55020   0.48250   0.11087
H          H       0.22883   0.42765   0.61618   0.12137
H          H       0.21558   0.39068   0.75797   0.17403
H          H       0.11695   0.41332   0.79103   0.16764
H          H       0.20948   0.38897   0.82789   0.15979
H          H       0.16361   0.74892   0.20743   0.40885
H          H       0.95273   0.75010   0.69988   0.10803
H          H       0.00320   0.75006   0.50617   0.12014
H          H       0.33917   0.25085   0.70636   0.40550
H          H       0.54861   0.24999   0.20074   0.10673
H          H       0.49606   0.24987   0.00732   0.11928
H          H       0.83639   0.25108   0.79257   0.40920
H          H       0.04727   0.24990   0.30012   0.10799
H          H       0.99680   0.24994   0.49383   0.12040
H          H       0.66082   0.74914   0.29364   0.40547
H          H       0.45139   0.75000   0.79926   0.10661
H          H       0.50393   0.75013   0.99269   0.11933
C          C       0.96466   0.96779   0.31776  -0.47845
C          C       0.03046   0.91765   0.33599   0.40774
C          C       0.12167   0.86231   0.38450   0.40560
C          C       0.17603   0.84051   0.42960  -0.49033
C          C       0.99277   0.87991   0.54702   0.58393
C          C       0.98568   0.81255   0.57566  -0.04236
C          C       0.97091   0.81210   0.63032  -0.08635
C          C       0.11539   0.91466   0.16034   0.55761
C          C       0.13789   0.95521   0.11253  -0.04459
C          C       0.07449   0.99096   0.08404  -0.09462
C          C       0.09683   0.02544   0.03772  -0.10350
C          C       0.18201   0.02419   0.01972  -0.08830
C          C       0.24612   0.98954   0.04838  -0.03472
C          C       0.22332   0.95509   0.09468  -0.10203
C          C       0.33858   0.98937   0.03037   0.58323
C          C       0.32616   0.87779   0.29165  -0.48588
C          C       0.35551   0.80527   0.28975   0.39947
C          C       0.53583   0.03198   0.81792  -0.47727
C          C       0.46993   0.08215   0.83606   0.40912
C          C       0.37850   0.13804   0.88410   0.40388
C          C       0.32377   0.15988   0.92909  -0.48740
C          C       0.50724   0.12005   0.04799   0.58581
C          C       0.51431   0.18742   0.07672  -0.04084
C          C       0.52956   0.18792   0.13131  -0.09284
C          C       0.38640   0.08501   0.65935   0.55490
C          C       0.36305   0.04468   0.61170  -0.04785
C          C       0.42616   0.00880   0.58300  -0.09044
C          C       0.40331   0.97406   0.53693  -0.10232
C          C       0.31803   0.97553   0.51924  -0.08456
C          C       0.25434   0.01038   0.54806  -0.03576
C          C       0.27745   0.04477   0.59433  -0.10117
C          C       0.16192   0.01060   0.53033   0.58411
C          C       0.17349   0.12206   0.79172  -0.48670
C          C       0.14432   0.19470   0.78957   0.39882
C          C       0.03612   0.46892   0.68190  -0.47863
C          C       0.96983   0.41931   0.66370   0.41010
C          C       0.87849   0.36395   0.61541   0.40623
C          C       0.82446   0.34153   0.57042  -0.48762
C          C       0.00725   0.37980   0.45297   0.58165
C          C       0.01433   0.31244   0.42435  -0.04312
C          C       0.02911   0.31196   0.36969  -0.08832
C          C       0.88456   0.41498   0.83979   0.55780
C          C       0.86208   0.45529   0.88770  -0.04564
C          C       0.92538   0.49108   0.91617  -0.09300
C          C       0.90298   0.52556   0.96250  -0.10378
C          C       0.81786   0.52421   0.98057  -0.08824
C          C       0.75391   0.48950   0.95191  -0.03507
C          C       0.77671   0.45512   0.90558  -0.10208
C          C       0.66157   0.48930   0.96995   0.58252
C          C       0.67330   0.37896   0.70850  -0.48556
C          C       0.64419   0.30641   0.71037   0.39589
C          C       0.46338   0.53088   0.18172  -0.47758
C          C       0.52975   0.58063   0.16378   0.40695
C          C       0.62131   0.63644   0.11594   0.40081
C          C       0.67571   0.65887   0.07103  -0.48669
C          C       0.49270   0.62019   0.95203   0.58419
C          C       0.48561   0.68753   0.92333  -0.03981
C          C       0.47037   0.68796   0.86873  -0.09310
C          C       0.61334   0.58495   0.34090   0.55585
C          C       0.63689   0.54457   0.38854  -0.04597
C          C       0.57391   0.50863   0.41722  -0.09316
C          C       0.59678   0.47389   0.46330  -0.10092
C          C       0.68199   0.47538   0.48107  -0.08572
C          C       0.74555   0.51024   0.45225  -0.03552
C          C       0.72244   0.54461   0.40597  -0.10172
C          C       0.83792   0.51057   0.46994   0.58157
C          C       0.82701   0.62094   0.20841  -0.48587
C          C       0.85589   0.69357   0.21055   0.39776
C          C       0.03534   0.03221   0.68224  -0.47839
C          C       0.96953   0.08234   0.66401   0.40758
C          C       0.87832   0.13769   0.61550   0.40562
C          C       0.82396   0.15949   0.57040  -0.49040
C          C       0.00723   0.12010   0.45299   0.58442
C          C       0.01431   0.18745   0.42434  -0.04267
C          C       0.02908   0.18790   0.36968  -0.08818
C          C       0.88460   0.08533   0.83966   0.55762
C          C       0.86210   0.04479   0.88747  -0.04469
C          C       0.92550   0.00904   0.91597  -0.09473
C          C       0.90316   0.97455   0.96228  -0.10343
C          C       0.81799   0.97581   0.98029  -0.08823
C          C       0.75388   0.01046   0.95162  -0.03467
C          C       0.77668   0.04491   0.90532  -0.10202
C          C       0.66142   0.01063   0.96964   0.58302
C          C       0.67383   0.12221   0.70835  -0.48591
C          C       0.64448   0.19473   0.71025   0.39941
C          C       0.46416   0.96802   0.18208  -0.47744
C          C       0.53007   0.91784   0.16394   0.40903
C          C       0.62150   0.86196   0.11590   0.40390
C          C       0.67623   0.84012   0.07091  -0.48715
C          C       0.49275   0.87995   0.95201   0.58561
C          C       0.48568   0.81258   0.92328  -0.04089
C          C       0.47044   0.81208   0.86869  -0.09278
C          C       0.61359   0.91499   0.34065   0.55474
C          C       0.63695   0.95532   0.38830  -0.04776
C          C       0.57384   0.99120   0.41701  -0.09045
C          C       0.59669   0.02594   0.46307  -0.10252
C          C       0.68196   0.02447   0.48076  -0.08443
C          C       0.74565   0.98962   0.45194  -0.03586
C          C       0.72255   0.95523   0.40568  -0.10110
C          C       0.83807   0.98940   0.46968   0.58454
C          C       0.82650   0.87794   0.20828  -0.48658
C          C       0.85568   0.80530   0.21043   0.39855
C          C       0.96387   0.53108   0.31811  -0.47875
C          C       0.03016   0.58069   0.33630   0.41008
C          C       0.12151   0.63605   0.38459   0.40610
C          C       0.17553   0.65847   0.42958  -0.48754
C          C       0.99274   0.62020   0.54704   0.58162
C          C       0.98567   0.68756   0.57565  -0.04328
C          C       0.97089   0.68804   0.63031  -0.08824
C          C       0.11544   0.58502   0.16021   0.55752
C          C       0.13791   0.54471   0.11230  -0.04551
C          C       0.07461   0.50891   0.08383  -0.09292
C          C       0.09701   0.47444   0.03750  -0.10377
C          C       0.18213   0.47579   0.01944  -0.08812
C          C       0.24609   0.51050   0.04809  -0.03509
C          C       0.22329   0.54487   0.09443  -0.10224
C          C       0.33843   0.51070   0.03005   0.58264
C          C       0.32670   0.62104   0.29150  -0.48565
C          C       0.35581   0.69359   0.28963   0.39619
C          C       0.53662   0.46912   0.81828  -0.47770
C          C       0.47025   0.41937   0.83622   0.40707
C          C       0.37869   0.36356   0.88406   0.40354
C          C       0.32429   0.34112   0.92898  -0.48725
C          C       0.50730   0.37981   0.04797   0.58434
C          C       0.51438   0.31247   0.07668  -0.03997
C          C       0.52963   0.31203   0.13127  -0.09295
C          C       0.38666   0.41505   0.65910   0.55574
C          C       0.36310   0.45543   0.61146  -0.04611
C          C       0.42609   0.49137   0.58278  -0.09287
C          C       0.40322   0.52611   0.53670  -0.10131
C          C       0.31800   0.52462   0.51893  -0.08697
C          C       0.25445   0.48976   0.54775  -0.03544
C          C       0.27755   0.45539   0.59403  -0.10157
C          C       0.16207   0.48942   0.53007   0.58143
C          C       0.17299   0.37905   0.79159  -0.48601
C          C       0.14411   0.30643   0.78945   0.39749
C          C       0.96395   0.75008   0.65751  -0.10544
C          C       0.99307   0.75005   0.54859  -0.10750
C          C       0.53674   0.24999   0.15845  -0.10142
C          C       0.50663   0.24993   0.04969  -0.10856
C          C       0.03604   0.24992   0.34249  -0.10557
C          C       0.00692   0.24995   0.45141  -0.10780
C          C       0.46326   0.75001   0.84155  -0.10128
C          C       0.49337   0.75006   0.95031  -0.10860
N          N       0.06500   0.86855   0.30565  -0.27619
N          N       0.12323   0.83325   0.33666  -0.28154
N          N       0.06445   0.91506   0.38536  -0.39109
N          N       0.43592   0.78499   0.27962  -0.25440
N          N       0.43550   0.13093   0.80537  -0.27962
N          N       0.37709   0.16667   0.83607  -0.27968
N          N       0.43577   0.08530   0.88537  -0.39058
N          N       0.06384   0.21511   0.77972  -0.25443
N          N       0.93480   0.37074   0.69426  -0.27778
N          N       0.87651   0.33548   0.66342  -0.28004
N          N       0.93597   0.41636   0.61434  -0.38937
N          N       0.56393   0.28593   0.72049  -0.25034
N          N       0.56478   0.62879   0.19478  -0.27696
N          N       0.62325   0.66441   0.16417  -0.28118
N          N       0.56367   0.58411   0.11441  -0.38643
N          N       0.93628   0.71397   0.22039  -0.25502
N          N       0.93499   0.13145   0.69436  -0.27597
N          N       0.87677   0.16675   0.66335  -0.28155
N          N       0.93555   0.08494   0.61464  -0.39113
N          N       0.56408   0.21500   0.72038  -0.25409
N          N       0.56450   0.86907   0.19463  -0.27934
N          N       0.62290   0.83333   0.16393  -0.27990
N          N       0.56423   0.91470   0.11463  -0.39062
N          N       0.93616   0.78489   0.22028  -0.25456
N          N       0.06519   0.62926   0.30574  -0.27768
N          N       0.12349   0.66452   0.33658  -0.28026
N          N       0.06402   0.58364   0.38566  -0.38911
N          N       0.43607   0.71406   0.27951  -0.25063
N          N       0.43521   0.37121   0.80523  -0.27723
N          N       0.37674   0.33559   0.83583  -0.28180
N          N       0.43633   0.41589   0.88559  -0.38745
N          N       0.06371   0.28603   0.77961  -0.25475
N          N       0.30352   0.74937   0.29659  -0.44221
N          N       0.19646   0.25060   0.79614  -0.44226
N          N       0.69647   0.25063   0.70341  -0.44236
N          N       0.80353   0.74940   0.20386  -0.44194
O          O       0.01281   0.87844   0.49829  -0.54649
O          O       0.97826   0.93396   0.57421  -0.56099
O          O       0.39379   0.96184   0.06089  -0.54179
O          O       0.35444   0.01747   0.98600  -0.55661
O          O       0.17259   0.88139   0.18533  -0.56327
O          O       0.03486   0.91227   0.17466  -0.56572
O          O       0.48507   0.12153  -0.00035  -0.55048
O          O       0.52383   0.06599   0.07467  -0.56242
O          O       0.10747   0.03841   0.56121  -0.54261
O          O       0.14527   0.98245   0.48609  -0.55892
O          O       0.32993   0.11822   0.68515  -0.55933
O          O       0.46727   0.08724   0.67288  -0.56210
O          O       0.98722   0.37843   0.50170  -0.54496
O          O       0.02172   0.43385   0.42581  -0.55958
O          O       0.60635   0.46195   0.93938  -0.54078
O          O       0.64575   0.51728   0.01443  -0.55319
O          O       0.82751   0.38172   0.81471  -0.56238
O          O       0.96509   0.41290   0.82540  -0.56443
O          O       0.51495   0.62170   0.00039  -0.54919
O          O       0.47615   0.56604   0.92553  -0.56081
O          O       0.89229   0.53829   0.43901  -0.54134
O          O       0.85465   0.48257   0.51423  -0.55610
O          O       0.66970   0.61810   0.31499  -0.56130
O          O       0.53252   0.58727   0.32749  -0.56268
O          O       0.98719   0.12156   0.50171  -0.54639
O          O       0.02174   0.06604   0.42578  -0.56182
O          O       0.60621   0.03816   0.93911  -0.54179
O          O       0.64555   0.98252   0.01401  -0.55642
O          O       0.82740   0.11860   0.81467  -0.56315
O          O       0.96514   0.08772   0.82534  -0.56578
O          O       0.51493   0.87847   0.00035  -0.55024
O          O       0.47617   0.93401   0.92534  -0.56246
O          O       0.89253   0.96159   0.43879  -0.54298
O          O       0.85472   0.01755   0.51391  -0.55898
O          O       0.67007   0.88177   0.31485  -0.55950
O          O       0.53273   0.91276   0.32712  -0.56182
O          O       0.01278   0.62157   0.49829  -0.54529
O          O       0.97828   0.56616   0.57419  -0.55916
O          O       0.39365   0.53805   0.06063  -0.54092
O          O       0.35425   0.48272   0.98558  -0.55322
O          O       0.17248   0.61828   0.18529  -0.56256
O          O       0.03491   0.58710   0.17460  -0.56402
O          O       0.48505   0.37830  -0.00039  -0.54931
O          O       0.52384   0.43396   0.07447  -0.56088
O          O       0.10771   0.46171   0.56098  -0.54075
O          O       0.14534   0.51743   0.48576  -0.55670
O          O       0.33030   0.38190   0.68501  -0.56091
O          O       0.46748   0.41273   0.67252  -0.56289
O          O       0.12044   0.74945   0.23536  -0.77482
O          O       0.38148   0.25023   0.73474  -0.77309
O          O       0.87955   0.25055   0.76464  -0.77507
O          O       0.61852   0.74977   0.26526  -0.77308

