data_crystal

_audit_creation_method 'AiiDA-DDEC plugin'

_cell_length_a         5.15808
_cell_length_b        25.20126
_cell_length_c        26.80462

_cell_angle_alpha     116.16202
_cell_angle_beta     89.94535
_cell_angle_gamma     90.02774

_symmetry_space_group_name_Hall 'P 1'
_symmetry_space_group_name_H-M  'P 1'

loop_
_symmetry_equiv_pos_as_xyz
 'x,y,z'

loop_
_atom_site_label
_atom_site_type_symbol
_atom_site_fract_x
_atom_site_fract_y
_atom_site_fract_z
_atom_site_charge
Na         Na      0.79241   0.35187   0.57294   0.90026
Na         Na      0.20788   0.77237   0.54291   0.89957
Na         Na      0.29840   0.64812   0.92457   0.90019
Na         Na      0.71430   0.22808   0.95719   0.89898
Na         Na      0.20751   0.64805   0.42702   0.90031
Na         Na      0.79213   0.22763   0.45706   0.89959
Na         Na      0.70163   0.35187   0.07543   0.90020
Na         Na      0.28568   0.77191   0.04281   0.89899
Zn         Zn      0.75983   0.74399   0.45737   0.92167
Zn         Zn      0.26759   0.25449   0.04194   0.92530
Zn         Zn      0.24015   0.25591   0.54253   0.92137
Zn         Zn      0.73237   0.74551   0.95805   0.92523
H          H       0.87542   0.84973   0.43595   0.12314
H          H       0.72713   0.89732   0.37714   0.11522
H          H       0.38546   0.82604   0.26966   0.13447
H          H       0.52740   0.77454   0.32639   0.11754
H          H       0.70879   0.99154   0.37536   0.11293
H          H       0.85605   0.09512   0.43609   0.11402
H          H       0.51293   0.07212   0.33048   0.11903
H          H       0.38394   0.96605   0.27166   0.12746
H          H       0.30814   0.67070   0.57285   0.12159
H          H       0.21287   0.60260   0.61430   0.11652
H          H       0.92329   0.50863   0.54581   0.11981
H          H       0.02078   0.57778   0.50456   0.11009
H          H       0.23935   0.59328   0.69706   0.11311
H          H       0.36700   0.64956   0.79693   0.12290
H          H       0.04330   0.54174   0.76865   0.10303
H          H       0.93118   0.48570   0.66828   0.12294
H          H       0.37460   0.15027   0.06428   0.12368
H          H       0.22634   0.10251   0.12293   0.11525
H          H       0.88478   0.17390   0.23031   0.13424
H          H       0.02694   0.22550   0.17355   0.11812
H          H       0.20779   0.00897   0.12489   0.11219
H          H       0.35268   0.90533   0.06404   0.11387
H          H       0.01015   0.92774   0.16910   0.11946
H          H       0.88347   0.03387   0.22816   0.12799
H          H       0.80791   0.32976   0.92759   0.11968
H          H       0.71550   0.39742   0.88554   0.11534
H          H       0.42664   0.49120   0.95388   0.12007
H          H       0.51998   0.42254   0.99588   0.11126
H          H       0.74198   0.40623   0.80246   0.11300
H          H       0.86656   0.35059   0.70221   0.12432
H          H       0.54566   0.45785   0.73038   0.10289
H          H       0.43512   0.51340   0.83110   0.12229
H          H       0.12460   0.15025   0.56405   0.12306
H          H       0.27287   0.10267   0.62287   0.11504
H          H       0.61455   0.17395   0.73035   0.13451
H          H       0.47263   0.22546   0.67362   0.11761
H          H       0.29117   0.00845   0.62464   0.11269
H          H       0.14395   0.90488   0.56391   0.11393
H          H       0.48703   0.92787   0.66952   0.11929
H          H       0.61604   0.03393   0.72834   0.12742
H          H       0.69190   0.32930   0.42712   0.12152
H          H       0.78713   0.39741   0.38570   0.11635
H          H       0.07667   0.49138   0.45421   0.11976
H          H       0.97918   0.42221   0.49544   0.11020
H          H       0.76060   0.40672   0.30294   0.11302
H          H       0.63298   0.35044   0.20307   0.12291
H          H       0.95666   0.45825   0.23134   0.10311
H          H       0.06878   0.51429   0.33171   0.12287
H          H       0.62537   0.84973   0.93572   0.12354
H          H       0.77364   0.89749   0.87707   0.11489
H          H       0.11520   0.82610   0.76969   0.13436
H          H       0.97304   0.77450   0.82645   0.11851
H          H       0.79219   0.99102   0.87510   0.11210
H          H       0.64730   0.09466   0.93596   0.11368
H          H       0.98984   0.07226   0.83090   0.11959
H          H       0.11651   0.96613   0.77184   0.12820
H          H       0.19204   0.67024   0.07241   0.11938
H          H       0.28449   0.60258   0.11445   0.11498
H          H       0.57334   0.50879   0.04611   0.12044
H          H       0.47996   0.57746   0.00411   0.11154
H          H       0.25791   0.59375   0.19754   0.11275
H          H       0.13351   0.64938   0.29775   0.12355
H          H       0.45429   0.54209   0.26957   0.10287
H          H       0.56508   0.48658   0.16885   0.12258
C          C       0.31854   0.78130   0.42005   0.60883
C          C       0.20778   0.80829   0.38485  -0.03585
C          C       0.98349   0.84276   0.39887  -0.07184
C          C       0.89704   0.86911   0.36556  -0.10366
C          C       0.04304   0.86174   0.31880  -0.07784
C          C       0.27036   0.82854   0.30468  -0.09329
C          C       0.35391   0.80175   0.33761  -0.09064
C          C       0.03723   0.97380   0.31938  -0.07856
C          C       0.88254   0.00918   0.36533  -0.10356
C          C       0.96861   0.06632   0.40001  -0.08548
C          C       0.19930   0.08785   0.38850  -0.04009
C          C       0.34650   0.05256   0.34097  -0.08060
C          C       0.26532   0.99491   0.30669  -0.08300
C          C       0.29446   0.14896   0.42547   0.59915
C          C       0.75204   0.67253   0.51464   0.61915
C          C       0.67415   0.62990   0.53734  -0.01822
C          C       0.44636   0.63610   0.56751  -0.08155
C          C       0.38609   0.59638   0.58938  -0.08790
C          C       0.55754   0.54948   0.57939  -0.08823
C          C       0.78723   0.54325   0.55017  -0.09583
C          C       0.84670   0.58342   0.52909  -0.08993
C          C       0.57571   0.53484   0.67698  -0.08775
C          C       0.41311   0.58117   0.71251  -0.09911
C          C       0.48786   0.61392   0.76801  -0.07374
C          C       0.71768   0.60072   0.78758  -0.03288
C          C       0.87393   0.55340   0.75171  -0.08717
C          C       0.80396   0.52065   0.69609  -0.08468
C          C       0.80575   0.63506   0.84677   0.60407
C          C       0.81776   0.21849   0.07966   0.61066
C          C       0.70709   0.19175   0.11521  -0.03512
C          C       0.48279   0.15722   0.10131  -0.07587
C          C       0.39608   0.13084   0.13464  -0.10222
C          C       0.54171   0.13837   0.18147  -0.07726
C          C       0.76922   0.17154   0.19544  -0.09321
C          C       0.85317   0.19831   0.16242  -0.09187
C          C       0.53572   0.02651   0.18077  -0.07764
C          C       0.38133   0.99115   0.13474  -0.10327
C          C       0.46619   0.93386   0.10007  -0.08534
C          C       0.69623   0.91221   0.11168  -0.03860
C          C       0.84365   0.94754   0.15901  -0.08186
C          C       0.76367   0.00527   0.19329  -0.08321
C          C       0.79150   0.85105   0.07518   0.59748
C          C       0.25405   0.32811   0.98656   0.61813
C          C       0.17397   0.37024   0.96316  -0.02012
C          C       0.94723   0.36409   0.93268  -0.07690
C          C       0.88827   0.40370   0.91055  -0.09060
C          C       0.05983   0.45055   0.92031  -0.08625
C          C       0.28935   0.45672   0.94958  -0.09645
C          C       0.34691   0.41672   0.97105  -0.08927
C          C       0.07802   0.46447   0.82220  -0.08769
C          C       0.91534   0.41823   0.78672  -0.09965
C          C       0.98908   0.38583   0.73110  -0.07334
C          C       0.21860   0.39921   0.71152  -0.03165
C          C       0.37647   0.44616   0.74746  -0.08854
C          C       0.30707   0.47867   0.80319  -0.08374
C          C       0.30435   0.36531   0.65220   0.60192
C          C       0.68139   0.21869   0.57993   0.60889
C          C       0.79216   0.19169   0.61514  -0.03590
C          C       0.01649   0.15723   0.60113  -0.07208
C          C       0.10298   0.13089   0.63445  -0.10353
C          C       0.95697   0.13825   0.68120  -0.07763
C          C       0.72965   0.17145   0.69532  -0.09330
C          C       0.64609   0.19824   0.66238  -0.09063
C          C       0.96276   0.02619   0.68062  -0.07912
C          C       0.11743   0.99081   0.63467  -0.10371
C          C       0.03137   0.93367   0.59999  -0.08555
C          C       0.80069   0.91214   0.61149  -0.03967
C          C       0.65347   0.94742   0.65902  -0.08067
C          C       0.73466   0.00508   0.69330  -0.08251
C          C       0.70551   0.85102   0.57451   0.59853
C          C       0.24797   0.32742   0.48532   0.61944
C          C       0.32577   0.37007   0.46263  -0.01832
C          C       0.55357   0.36389   0.43247  -0.08158
C          C       0.61392   0.40361   0.41062  -0.08820
C          C       0.44251   0.45051   0.42061  -0.08823
C          C       0.21278   0.45676   0.44983  -0.09564
C          C       0.15324   0.41657   0.47090  -0.08965
C          C       0.42432   0.46515   0.32301  -0.08806
C          C       0.58688   0.41882   0.28747  -0.09902
C          C       0.51208   0.38608   0.23198  -0.07383
C          C       0.28226   0.39928   0.21241  -0.03280
C          C       0.12603   0.44660   0.24829  -0.08717
C          C       0.19605   0.47935   0.30391  -0.08453
C          C       0.19423   0.36494   0.15323   0.60404
C          C       0.18223   0.78151   0.92034   0.61039
C          C       0.29289   0.80824   0.88479  -0.03485
C          C       0.51718   0.84278   0.89868  -0.07619
C          C       0.60390   0.86916   0.86536  -0.10241
C          C       0.45828   0.86162   0.81853  -0.07700
C          C       0.23076   0.82845   0.80456  -0.09331
C          C       0.14681   0.80169   0.83758  -0.09167
C          C       0.46426   0.97348   0.81923  -0.07769
C          C       0.61865   0.00885   0.86526  -0.10331
C          C       0.53379   0.06613   0.89993  -0.08551
C          C       0.30375   0.08779   0.88832  -0.03863
C          C       0.15634   0.05246   0.84099  -0.08197
C          C       0.23631   0.99472   0.80671  -0.08299
C          C       0.20847   0.14894   0.92482   0.59761
C          C       0.74593   0.67188   0.01343   0.61806
C          C       0.82600   0.62976   0.03684  -0.02016
C          C       0.05273   0.63591   0.06731  -0.07715
C          C       0.11173   0.59629   0.08943  -0.09054
C          C       0.94022   0.54942   0.07966  -0.08680
C          C       0.71065   0.54327   0.05040  -0.09567
C          C       0.65305   0.58328   0.02894  -0.08929
C          C       0.92205   0.53550   0.17778  -0.08716
C          C       0.08461   0.58174   0.21327  -0.10017
C          C       0.01082   0.61416   0.26888  -0.07276
C          C       0.78125   0.60080   0.28848  -0.03190
C          C       0.62347   0.55382   0.25251  -0.08790
C          C       0.69303   0.52131   0.19678  -0.08419
C          C       0.69572   0.63470   0.34784   0.60171
S          S       0.94164   0.89902   0.27871   0.96952
S          S       0.48618   0.49733   0.60558   1.00115
S          S       0.43850   0.10133   0.22174   0.96712
S          S       0.98739   0.50222   0.89349   0.99924
S          S       0.05835   0.10097   0.72130   0.96967
S          S       0.51395   0.50267   0.39442   1.00150
S          S       0.56149   0.89867   0.77826   0.96704
S          S       0.01273   0.49775   0.10647   0.99950
O          O       0.19122   0.76326   0.45074  -0.66441
O          O       0.56434   0.77761   0.41570  -0.51335
O          O       0.49484   0.16627   0.41087  -0.61594
O          O       0.15688   0.17972   0.46981  -0.66957
O          O       0.08389   0.87430   0.22633  -0.49303
O          O       0.65851   0.89948   0.28045  -0.51897
O          O       0.58392   0.69238   0.49131  -0.65718
O          O       0.20371   0.49269   0.60584  -0.52287
O          O       0.64634   0.44484   0.57522  -0.55340
O          O       0.64509   0.67371   0.88094  -0.65120
O          O       0.02465   0.62223   0.85803  -0.62318
O          O       0.98896   0.68580   0.51853  -0.67015
O          O       0.68840   0.23713   0.04959  -0.66466
O          O       0.06375   0.22089   0.08290  -0.51172
O          O       0.99015   0.83364   0.09024  -0.61186
O          O       0.65379   0.82049   0.03082  -0.67038
O          O       0.57752   0.12646   0.27449  -0.49017
O          O       0.15499   0.10040   0.21921  -0.51940
O          O       0.08658   0.30423   0.00643  -0.65755
O          O       0.70580   0.50756   0.89394  -0.51771
O          O       0.15087   0.55451   0.92302  -0.55402
O          O       0.14060   0.32775   0.61788  -0.64771
O          O       0.52527   0.37731   0.64112  -0.61941
O          O       0.49421   0.31912   0.98646  -0.67064
O          O       0.80873   0.23673   0.54924  -0.66486
O          O       0.43558   0.22238   0.58430  -0.51276
O          O       0.50512   0.83374   0.58914  -0.61547
O          O       0.84301   0.82025   0.53016  -0.66975
O          O       0.91611   0.12570   0.77368  -0.49289
O          O       0.34148   0.10052   0.71956  -0.51953
O          O       0.41616   0.30769   0.50874  -0.65748
O          O       0.79641   0.50733   0.39414  -0.52298
O          O       0.35351   0.55513   0.42478  -0.55390
O          O       0.35490   0.32630   0.11906  -0.65124
O          O       0.97535   0.37777   0.14196  -0.62314
O          O       0.01115   0.31405   0.48135  -0.66986
O          O       0.31159   0.76287   0.95041  -0.66455
O          O       0.93625   0.77911   0.91710  -0.51144
O          O       0.00983   0.16636   0.90976  -0.61177
O          O       0.34616   0.17951   0.96918  -0.67059
O          O       0.42246   0.87354   0.72551  -0.48978
O          O       0.84499   0.89959   0.78078  -0.51974
O          O       0.91339   0.69577   0.99358  -0.65783
O          O       0.29432   0.49239   0.10600  -0.51792
O          O       0.84916   0.44548   0.07694  -0.55365
O          O       0.85965   0.67226   0.38211  -0.64762
O          O       0.47484   0.62272   0.35898  -0.61903
O          O       0.50575   0.68086   0.01352  -0.67033

