data_crystal

_audit_creation_method 'AiiDA-DDEC plugin'

_cell_length_a        13.57764
_cell_length_b        15.13523
_cell_length_c        19.49454

_cell_angle_alpha     90.03725
_cell_angle_beta     90.13303
_cell_angle_gamma     89.96724

_symmetry_space_group_name_Hall 'P 1'
_symmetry_space_group_name_H-M  'P 1'

loop_
_symmetry_equiv_pos_as_xyz
 'x,y,z'

loop_
_atom_site_label
_atom_site_type_symbol
_atom_site_fract_x
_atom_site_fract_y
_atom_site_fract_z
_atom_site_charge
Cd         Cd      0.69302   0.86202   0.03378   0.82711
Cd         Cd      0.80775   0.13635   0.53474   0.82867
Cd         Cd      0.30736   0.36281   0.46499   0.82912
Cd         Cd      0.19233   0.63562   0.96453   0.82894
H          H       0.73477   0.96364   0.89474   0.34505
H          H       0.66035   0.91390   0.30056   0.12481
H          H       0.54583   0.77191   0.36261   0.28185
H          H       0.75871   0.82264   0.89401   0.05954
H          H       0.91291   0.78315   0.94596   0.07846
H          H       0.07236   0.87685   0.09372   0.08666
H          H       0.87981   0.95156   0.76755   0.12301
H          H       0.95871   0.89408   0.66068   0.09039
H          H       0.12301   0.94543   0.98548   0.06449
H          H       0.82501   0.68501   0.90179   0.13364
H          H       0.97251   0.59448   0.67844   0.12197
H          H       0.00920   0.02563   0.07038   0.08309
H          H      -0.00157   0.06545   0.98529   0.10898
H          H       0.83970   0.01401   0.97197   0.09370
H          H       0.83681   0.00300   0.06246   0.08376
H          H       0.69568   0.69192   0.37768   0.04162
H          H       0.98937   0.95629   0.89047   0.10660
H          H       0.04721   0.85166   0.89666   0.09787
H          H       0.66353   0.94385   0.17422   0.09897
H          H       0.80577   0.53580   0.10449   0.12750
H          H       0.77385   0.61071   0.31572   0.11626
H          H       0.93020   0.48108   0.76706   0.12060
H          H       0.75019   0.68507   0.06702   0.11506
H          H       0.90266   0.86597   0.11073   0.09137
H          H       0.90693   0.76900   0.05938   0.09531
H          H       0.83532   0.47182   0.98357   0.11457
H          H       0.90319   0.57372   0.97674   0.12672
H          H       0.77299   0.57230   0.95972   0.10420
H          H       0.88923   0.39604   0.29273   0.12680
H          H       0.91918   0.50970   0.30999   0.10361
H          H       0.79929   0.46721   0.33068   0.09804
H          H       0.76632   0.88156   0.39294   0.07331
H          H       0.71471   0.74430   0.49934   0.09508
H          H       0.70899   0.86003   0.50483   0.09594
H          H       0.01657   0.83141   0.40670   0.08579
H          H       0.92960   0.91365   0.38317   0.09233
H          H       0.84494   0.65116   0.41222   0.06244
H          H       0.97068   0.67926   0.40570   0.07499
H          H       0.98046   0.71324   0.52414   0.09758
H          H       0.86415   0.66170   0.53197   0.08797
H          H       0.84921   0.81279   0.57748   0.06880
H          H       0.99306   0.87544   0.52072   0.09597
H          H       0.76077   0.03179   0.39465   0.34549
H          H       0.84026   0.08575   0.80227   0.12551
H          H       0.95420   0.22661   0.86348   0.28159
H          H       0.74087   0.17300   0.39408   0.06033
H          H       0.58654   0.21555   0.44615   0.07905
H          H       0.42755   0.12014   0.59384   0.08691
H          H       0.61787   0.04744   0.26653   0.12301
H          H       0.53987   0.10696   0.15991   0.09029
H          H       0.37671   0.05225   0.48524   0.06513
H          H       0.67472   0.31172   0.40354   0.13298
H          H       0.52738   0.40634   0.18075   0.12359
H          H       0.49095   0.97143   0.56928   0.08303
H          H       0.50275   0.93323   0.48378   0.10932
H          H       0.66132   0.98492   0.47287   0.09214
H          H       0.66278   0.99647   0.56333   0.08239
H          H       0.80345   0.30779   0.87890   0.04244
H          H       0.50983   0.04282   0.39022   0.10716
H          H       0.45157   0.14718   0.39694   0.09703
H          H       0.83728   0.05511   0.67596   0.09891
H          H       0.69490   0.46278   0.60480   0.12604
H          H       0.72660   0.38895   0.81627   0.11616
H          H       0.57006   0.51802   0.27087   0.12009
H          H       0.75097   0.31353   0.56779   0.11383
H          H       0.59715   0.13253   0.61103   0.09117
H          H       0.59187   0.22961   0.56004   0.09554
H          H       0.66621   0.52469   0.48685   0.11450
H          H       0.59826   0.42285   0.48039   0.12676
H          H       0.72816   0.42429   0.46268   0.10401
H          H       0.61027   0.60409   0.79147   0.12768
H          H       0.57973   0.49066   0.80900   0.10355
H          H       0.69942   0.53319   0.83084   0.09800
H          H       0.73373   0.11773   0.89330   0.07373
H          H       0.78466   0.25487   0.00032   0.09480
H          H       0.79131   0.13914   0.00538   0.09544
H          H       0.48356   0.16764   0.90600   0.08553
H          H       0.57033   0.08573   0.88185   0.09269
H          H       0.65437   0.34803   0.91346   0.06267
H          H       0.52886   0.31948   0.90614   0.07470
H          H       0.51871   0.28415   0.02424   0.09689
H          H       0.63460   0.33619   0.03311   0.08860
H          H       0.65035   0.18442   0.07747   0.06919
H          H       0.50711   0.12176   0.01950   0.09496
H          H       0.26545   0.46417   0.60528   0.34424
H          H       0.34016   0.41400   0.19790   0.12574
H          H       0.45506   0.27320   0.13605   0.28094
H          H       0.24259   0.32315   0.60575   0.05925
H          H       0.08777   0.28352   0.55385   0.07834
H          H       0.92874   0.37819   0.40684   0.08631
H          H       0.12412   0.45026   0.73403   0.12187
H          H       0.04281   0.39222   0.83974   0.09088
H          H       0.87769   0.44547   0.51559   0.06398
H          H       0.17405   0.18572   0.59643   0.13260
H          H       0.02894   0.09286   0.81982   0.12287
H          H       0.99076   0.52650   0.43095   0.08387
H          H       0.00202   0.56571   0.51625   0.10916
H          H       0.16116   0.51472   0.52843   0.09199
H          H       0.16315   0.50365   0.43802   0.08383
H          H       0.30534   0.19154   0.12108   0.04012
H          H       0.01240   0.45660   0.61016   0.10639
H          H       0.95431   0.35212   0.60443   0.09765
H          H       0.33595   0.44460   0.32410   0.09914
H          H       0.19376   0.03716   0.39449   0.12620
H          H       0.22901   0.10999   0.18320   0.11592
H          H       0.07335   0.98019   0.73093   0.11958
H          H       0.25108   0.18585   0.43170   0.11660
H          H       0.09816   0.36694   0.38962   0.09125
H          H       0.09440   0.26981   0.44073   0.09549
H          H       0.16401   0.97351   0.51325   0.11453
H          H       0.09636   0.07545   0.52108   0.12704
H          H       0.22660   0.07356   0.53768   0.10469
H          H       0.10970   0.89642   0.20722   0.12713
H          H       0.08003   0.01020   0.19013   0.10405
H          H       0.19934   0.96706   0.16850   0.09759
H          H       0.23446   0.38106   0.10589   0.07373
H          H       0.28605   0.24393  -0.00076   0.09551
H          H       0.29131   0.35966   0.99394   0.09609
H          H       0.98437   0.32990   0.09263   0.08612
H          H       0.07031   0.41260   0.11683   0.09303
H          H       0.15593   0.15046   0.08675   0.06351
H          H       0.03041   0.17890   0.09364   0.07545
H          H       0.01990   0.21291   0.97527   0.09728
H          H       0.13621   0.16124   0.96700   0.08835
H          H       0.15065   0.31256   0.92178   0.06842
H          H       0.00742   0.37551   0.97909   0.09581
H          H       0.23889   0.53191   0.10532   0.34641
H          H       0.15839   0.58561   0.69696   0.12434
H          H       0.04498   0.73016   0.63634   0.28091
H          H       0.25820   0.67274   0.10539   0.06001
H          H       0.41243   0.71565   0.05343   0.07851
H          H       0.57102   0.61922   0.90562   0.08620
H          H       0.37678   0.54807   0.23347   0.12243
H          H       0.45621   0.60587   0.34028   0.08994
H          H       0.62319   0.55301   0.01462   0.06455
H          H       0.32697   0.81383   0.09683   0.13213
H          H       0.47130   0.90486   0.32153   0.12390
H          H       0.50973   0.47132   0.93068   0.08307
H          H       0.49799   0.43331   0.01616   0.10944
H          H       0.33868   0.48407   0.02649   0.09219
H          H       0.33797   0.49615   0.93611   0.08260
H          H       0.19743   0.80923   0.62187   0.04053
H          H       0.49056   0.54368   0.10977   0.10666
H          H       0.54785   0.64832   0.10261   0.09753
H          H       0.16099   0.55462   0.82312   0.09791
H          H       0.31048   0.95973   0.89546   0.12670
H          H       0.27283   0.88833   0.68391   0.11639
H          H       0.42641   0.01832   0.23338   0.12081
H          H       0.25115   0.81148   0.93211   0.11546
H          H       0.40163   0.63262   0.88881   0.09077
H          H       0.40705   0.72937   0.94040   0.09519
H          H       0.33541   0.02731   0.01579   0.11518
H          H       0.40339   0.92548   0.02279   0.12645
H          H       0.27318   0.92688   0.03923   0.10426
H          H       0.39366   0.10027   0.70785   0.12664
H          H       0.41994   0.98636   0.68853   0.10331
H          H       0.30043   0.03201   0.67018   0.09807
H          H       0.26464   0.61878   0.60556   0.07292
H          H       0.21404   0.75662   0.49906   0.09623
H          H       0.20722   0.64095   0.49354   0.09619
H          H       0.51513   0.66845   0.59291   0.08598
H          H       0.42863   0.58633   0.61698   0.09230
H          H       0.34496   0.84905   0.58622   0.06365
H          H       0.47025   0.81978   0.59356   0.07464
H          H       0.48042   0.78489   0.47531   0.09569
H          H       0.36497   0.83770   0.46652   0.08878
H          H       0.34826   0.68614   0.42177   0.06852
H          H       0.49109   0.62251   0.47946   0.09625
C          C       0.68175   0.86192   0.26503  -0.17603
C          C       0.82357   0.86249   0.87995   0.12720
C          C       0.89942   0.85391   0.93885   0.02969
C          C       0.70511   0.77890   0.29014   0.05547
C          C       0.92755   0.70491   0.74101   0.16729
C          C       0.03527   0.85427   0.04681  -0.15923
C          C       0.73133   0.73458   0.17047   0.17361
C          C       0.86737   0.82454   0.81448   0.05925
C          C       0.88470   0.73198   0.80500   0.01720
C          C       0.89346   0.88132   0.76190  -0.19049
C          C       0.93772   0.84892   0.70177   0.08641
C          C       0.04509   0.92846   0.99222   0.02592
C          C       0.86119   0.66617   0.85441  -0.27669
C          C       0.94212   0.61350   0.72789  -0.14031
C          C       0.98584   0.00785   0.01819  -0.20615
C          C       0.87578   0.98273   0.01577  -0.08819
C          C       0.69283   0.76327   0.36667   0.13139
C          C       0.88071   0.57795   0.84085   0.25293
C          C       0.73504   0.71270   0.24223   0.02291
C          C      -0.00066   0.89841   0.92384  -0.23571
C          C       0.68301   0.87908   0.19450   0.08760
C          C       0.78571   0.58628   0.14166  -0.16561
C          C       0.76810   0.62709   0.26174  -0.27469
C          C       0.91937   0.55121   0.77654  -0.17931
C          C       0.75579   0.66893   0.12135  -0.15947
C          C       0.79408   0.56543   0.21244   0.25074
C          C       0.92406   0.83970   0.06047  -0.09554
C          C       0.09007   0.77250   0.02226   0.57719
C          C       0.84195   0.53441   0.95572  -0.19779
C          C       0.86064   0.46367   0.29426  -0.18852
C          C       0.77224   0.81201   0.40833   0.05510
C          C       0.75479   0.80528   0.48673  -0.23800
C          C       0.94083   0.85457   0.41471  -0.08495
C          C       0.89961   0.70154   0.42615  -0.06446
C          C       0.90427   0.71449   0.50531  -0.23060
C          C       0.85614   0.80380   0.52196   0.02138
C          C       0.92331   0.87731   0.49180  -0.16899
C          C       0.87965   0.96884   0.50467   0.59126
C          C       0.81901   0.13754   0.76647  -0.17656
C          C       0.67469   0.13477   0.38010   0.12917
C          C       0.59966   0.14470   0.43917   0.02749
C          C       0.79558   0.22067   0.79131   0.05528
C          C       0.57193   0.29476   0.24221   0.17004
C          C       0.46421   0.14348   0.54711  -0.15944
C          C       0.76943   0.26435   0.67142   0.17229
C          C       0.63126   0.17370   0.31473   0.05987
C          C       0.61462   0.26647   0.30606   0.01522
C          C       0.60485   0.11786   0.26149  -0.18975
C          C       0.56115   0.15148   0.20143   0.08596
C          C       0.45454   0.06964   0.49208   0.02718
C          C       0.63853   0.33131   0.35627  -0.27786
C          C       0.55775   0.38641   0.23007  -0.14314
C          C       0.51449   0.99031   0.51749  -0.20681
C          C       0.62436   0.01620   0.51616  -0.08746
C          C       0.80730   0.23644   0.86791   0.12961
C          C       0.61921   0.41970   0.34364   0.25256
C          C       0.76558   0.28665   0.74313   0.02461
C          C       0.49967   0.10036   0.42394  -0.23644
C          C       0.81769   0.11999   0.69596   0.08545
C          C       0.71503   0.41254   0.64214  -0.16493
C          C       0.73233   0.37237   0.76233  -0.27353
C          C       0.58060   0.44771   0.27955  -0.17734
C          C       0.74526   0.32985   0.62209  -0.15840
C          C       0.70635   0.43381   0.71282   0.25096
C          C       0.57535   0.15879   0.56083  -0.09549
C          C       0.40814   0.22497   0.52332   0.57681
C          C       0.65912   0.46210   0.45899  -0.19591
C          C       0.63866   0.53641   0.79373  -0.18941
C          C       0.72784   0.18724   0.90891   0.05460
C          C       0.74505   0.19366   0.98737  -0.23608
C          C       0.55930   0.14433   0.91397  -0.08451
C          C       0.59996   0.29724   0.92675  -0.06418
C          C       0.59499   0.28346   0.00581  -0.23088
C          C       0.64352   0.19416   0.02202   0.01969
C          C       0.57693   0.12069   0.99086  -0.16849
C          C       0.62023   0.02899   0.00345   0.58691
C          C       0.31904   0.36204   0.23349  -0.17799
C          C       0.17748   0.36253   0.62011   0.12850
C          C       0.10152   0.35416   0.56133   0.03056
C          C       0.29630   0.27882   0.20846   0.05787
C          C       0.07274   0.20387   0.75779   0.16790
C          C       0.96574   0.35491   0.45354  -0.15775
C          C       0.26956   0.23505   0.32819   0.17498
C          C       0.13402   0.32405   0.68548   0.05787
C          C       0.11581   0.23151   0.69405   0.01698
C          C       0.10893   0.38017   0.73877  -0.18831
C          C       0.06370   0.34729   0.79841   0.08574
C          C       0.95564   0.42867   0.50867   0.02580
C          C       0.13890   0.16628   0.64400  -0.27610
C          C       0.05907   0.11228   0.77041  -0.14329
C          C       0.01449   0.50838   0.48296  -0.20783
C          C       0.12463   0.48339   0.48484  -0.08568
C          C       0.30842   0.26297   0.13188   0.13244
C          C       0.12000   0.07787   0.65700   0.25089
C          C       0.26634   0.21275   0.25646   0.02200
C          C       0.00183   0.39868   0.57687  -0.23552
C          C       0.31718   0.37957   0.30401   0.08448
C          C       0.21453   0.08720   0.35725  -0.16558
C          C       0.23349   0.12692   0.23715  -0.27545
C          C       0.08262   0.05046   0.72149  -0.17641
C          C       0.24499   0.16972   0.37740  -0.16127
C          C       0.20656   0.06581   0.28658   0.25266
C          C       0.07692   0.34047   0.43981  -0.09561
C          C       0.91087   0.27277   0.47701   0.57644
C          C       0.15766   0.03576   0.54161  -0.19779
C          C       0.13858   0.96391   0.20542  -0.19020
C          C       0.22870   0.31151   0.09050   0.05559
C          C       0.24577   0.30482   0.01206  -0.23925
C          C       0.05985   0.35375   0.08488  -0.08595
C          C       0.10139   0.20105   0.07307  -0.06688
C          C       0.09622   0.21405   0.99391  -0.23079
C          C       0.14413   0.30344   0.97728   0.02216
C          C       0.07722   0.37700   0.00792  -0.16921
C          C       0.12041   0.46868   0.99529   0.59113
C          C       0.17987   0.63727   0.73282  -0.17765
C          C       0.32464   0.63502   0.11961   0.12938
C          C       0.39973   0.64477   0.06060   0.03031
C          C       0.20383   0.72040   0.70831   0.05821
C          C       0.42741   0.79436   0.25856   0.16945
C          C       0.53506   0.64325   0.95238  -0.15815
C          C       0.23137   0.76300   0.82836   0.17337
C          C       0.36744   0.67432   0.18516   0.05914
C          C       0.38510   0.76697   0.19431   0.01591
C          C       0.39178   0.61815   0.23862  -0.18949
C          C       0.43607   0.65081   0.29877   0.08528
C          C       0.54523   0.56998   0.00774   0.02567
C          C       0.36205   0.83276   0.14468  -0.27729
C          C       0.44121   0.88583   0.27190  -0.14217
C          C       0.48590   0.49025   0.98243  -0.20629
C          C       0.37588   0.51575   0.98352  -0.08656
C          C       0.19223   0.73776   0.63191   0.13171
C          C       0.38038   0.92107   0.15864   0.24902
C          C       0.23450   0.78569   0.75678   0.02178
C          C       0.50007   0.60102   0.07584  -0.23576
C          C       0.18122   0.61937   0.80329   0.08735
C          C       0.28892   0.91002   0.85803  -0.16322
C          C       0.26843   0.87110   0.73777  -0.27510
C          C       0.41757   0.94810   0.22339  -0.17719
C          C       0.25715   0.82782   0.87787  -0.16145
C          C       0.29681   0.93147   0.78737   0.25174
C          C       0.42379   0.65860   0.93907  -0.09545
C          C       0.59173   0.72476   0.97539   0.57773
C          C       0.34208   0.96473   0.04364  -0.19738
C          C       0.36322   0.03332   0.70571  -0.18780
C          C       0.27086   0.68836   0.59028   0.05594
C          C       0.25355   0.69529   0.51183  -0.23860
C          C       0.43939   0.64514   0.58510  -0.08552
C          C       0.39908   0.79803   0.57281  -0.06505
C          C       0.40410   0.78462   0.49372  -0.22996
C          C       0.35513   0.69569   0.47723   0.02139
C          C       0.42132   0.62189   0.50821  -0.16873
C          C       0.37730   0.53063   0.49535   0.58753
N          N       0.70526   0.81736   0.14802  -0.29353
N          N       0.95490   0.76355   0.69123  -0.27471
N          N       0.86206   0.88498   0.00760  -0.14111
N          N       0.87341   0.78445   0.39048  -0.20167
N          N       0.79541   0.18141   0.64922  -0.29090
N          N       0.54448   0.23708   0.19163  -0.27576
N          N       0.63749   0.11392   0.50798  -0.14342
N          N       0.62669   0.21481   0.89064  -0.20148
N          N       0.29507   0.31805   0.35060  -0.29213
N          N       0.04520   0.26198   0.80802  -0.27743
N          N       0.13871   0.38568   0.49274  -0.14408
N          N       0.12780   0.28386   0.10875  -0.20115
N          N       0.20454   0.68023   0.85026  -0.29208
N          N       0.45434   0.73607   0.30878  -0.27432
N          N       0.36211   0.61342   0.99187  -0.14449
N          N       0.37207   0.71557   0.60866  -0.20265
O          O       0.79505   0.95190   0.86781  -0.51409
O          O       0.60128   0.79896   0.39001  -0.50353
O          O       0.86212   0.50977   0.88561  -0.17709
O          O       0.82897   0.48236   0.22543  -0.16154
O          O       0.18430   0.77282   0.02819  -0.58071
O          O       0.04332   0.70962   0.99370  -0.54045
O          O       0.85295   0.01797   0.45445  -0.57498
O          O       0.87127   0.99490   0.56669  -0.56968
O          O       0.70050   0.04463   0.36783  -0.51190
O          O       0.89908   0.20139   0.89208  -0.50201
O          O       0.63799   0.48699   0.38911  -0.17813
O          O       0.67129   0.51701   0.72532  -0.16089
O          O       0.31403   0.22282   0.52812  -0.58005
O          O       0.45382   0.28969   0.49648  -0.53997
O          O       0.64252   0.97836   0.95306  -0.57183
O          O       0.63244   0.00452   0.06566  -0.56884
O          O       0.20545   0.45206   0.63240  -0.51253
O          O       0.39955   0.29874   0.10777  -0.50308
O          O       0.13803   0.01027   0.61155  -0.17625
O          O       0.17119   0.98273   0.27406  -0.16140
O          O       0.81704   0.27260   0.46900  -0.58041
O          O       0.95682   0.21013   0.50658  -0.54037
O          O       0.14702   0.51780   0.04553  -0.57493
O          O       0.12844   0.49485   0.93325  -0.56949
O          O       0.29925   0.54481   0.13201  -0.51274
O          O       0.09997   0.70498   0.60745  -0.50392
O          O       0.36194   0.98924   0.11383  -0.17510
O          O       0.33367   0.01379   0.77474  -0.16154
O          O       0.68560   0.72290   0.96881  -0.58131
O          O       0.54666   0.78910   0.00337  -0.54002
O          O       0.35757   0.47851   0.54532  -0.57186
O          O       0.36225   0.50791   0.43313  -0.56999

