data_crystal

_audit_creation_method 'AiiDA-DDEC plugin'

_cell_length_a        11.65197
_cell_length_b        20.41556
_cell_length_c        32.85342

_cell_angle_alpha     87.07555
_cell_angle_beta     79.73332
_cell_angle_gamma     73.31745

_symmetry_space_group_name_Hall 'P 1'
_symmetry_space_group_name_H-M  'P 1'

loop_
_symmetry_equiv_pos_as_xyz
 'x,y,z'

loop_
_atom_site_label
_atom_site_type_symbol
_atom_site_fract_x
_atom_site_fract_y
_atom_site_fract_z
_atom_site_charge
Zn         Zn      0.39000   0.08026   0.06265   0.78381
Zn         Zn      0.54845   0.42071   0.06250   0.78512
Zn         Zn      0.52980   0.07942   0.43766   0.78408
Zn         Zn      0.03224   0.42058   0.43743   0.78165
Zn         Zn      0.61001   0.91973   0.93736   0.78371
Zn         Zn      0.45155   0.57928   0.93751   0.78520
Zn         Zn      0.47020   0.92058   0.56235   0.78418
Zn         Zn      0.96776   0.57941   0.56258   0.78183
Zn         Zn      0.84823   0.74966   0.30774   0.77255
Zn         Zn      0.40383   0.75078   0.19242   0.76899
Zn         Zn      0.15177   0.25033   0.69226   0.77261
Zn         Zn      0.59617   0.24921   0.80758   0.76890
H          H       0.24583   0.69335   0.48465   0.12400
H          H       0.20265   0.76987   0.36173   0.09832
H          H       0.96200   0.66082   0.42844   0.12256
H          H       0.65245   0.88685   0.29229   0.12857
H          H       0.66918   0.96436   0.22004   0.14988
H          H       0.99498   0.80259   0.21747   0.12665
H          H       0.71831   0.92176   0.14729   0.13980
H          H       0.98296   0.99288   0.06170   0.13857
H          H       0.06756   0.90779   0.17951   0.15297
H          H       0.26411   0.86998   0.13591   0.14217
H          H       0.44579   0.93200   0.10770   0.11818
H          H       0.11830   0.05893   0.07663   0.13135
H          H       0.86160   0.96929   0.01440   0.12923
H          H       0.58589   0.01592   0.12159   0.12239
H          H       0.63554   0.02969   0.99195   0.12323
H          H       0.38133   0.14552   0.22132   0.11006
H          H       0.26908   0.80790   0.48416   0.12379
H          H       0.43645   0.72929   0.36166   0.09709
H          H       0.61041   0.83890   0.42781   0.12188
H          H       0.05686   0.61202   0.29220   0.13014
H          H       0.11119   0.53507   0.21978   0.15025
H          H       0.78927   0.69807   0.21776   0.12819
H          H       0.13507   0.57811   0.14726   0.14039
H          H       0.95548   0.50732   0.06191   0.13887
H          H       0.75301   0.59320   0.17966   0.15474
H          H       0.59984   0.63087   0.13648   0.14186
H          H       0.44644   0.56946   0.10778   0.11723
H          H       0.80504   0.44258   0.07629   0.13084
H          H       0.12419   0.53033   0.01448   0.12935
H          H       0.29266   0.48438   0.12160   0.12205
H          H       0.37281   0.46969   0.99196   0.12279
H          H       0.39719   0.35539   0.22233   0.11025
H          H       0.06145   0.69321   0.01587   0.12422
H          H       0.02842   0.76992   0.13868   0.09682
H          H       0.37849   0.66098   0.07175   0.12192
H          H       0.46164   0.88775   0.20775   0.12951
H          H       0.36723   0.96464   0.28028   0.15047
H          H       0.20408   0.80302   0.28225   0.12651
H          H       0.36036   0.92217   0.35278   0.13988
H          H       0.02350   0.99294   0.43809   0.13889
H          H       0.02604   0.90731   0.32028   0.15462
H          H       0.86763   0.86941   0.36330   0.14178
H          H       0.62346   0.93027   0.39218   0.11685
H          H       0.82222   0.05732   0.42387   0.13058
H          H       0.16726   0.97001   0.48539   0.12957
H          H       0.39787   0.01620   0.37858   0.12134
H          H       0.33173   0.03065   0.50826   0.12333
H          H       0.47288   0.14475   0.27837   0.10977
H          H       0.92571   0.80519   0.01556   0.12373
H          H       0.83302   0.73081   0.13889   0.09741
H          H       0.55199   0.83977   0.07114   0.12333
H          H       0.33103   0.61359   0.20763   0.13005
H          H       0.35309   0.53599   0.27984   0.14997
H          H       0.51331   0.69789   0.28249   0.12795
H          H       0.28688   0.57835   0.35266   0.13998
H          H       0.53807   0.50715   0.43785   0.13728
H          H       0.65406   0.59278   0.32001   0.15408
H          H       0.76974   0.63024   0.36300   0.14096
H          H       0.98428   0.56966   0.39213   0.11799
H          H       0.75365   0.44262   0.42389   0.13095
H          H       0.34736   0.53056   0.48525   0.13093
H          H       0.22233   0.48489   0.37872   0.12101
H          H       0.15962   0.47031   0.50842   0.12220
H          H       0.24789   0.35525   0.27868   0.11083
H          H       0.75418   0.30665   0.51535   0.12371
H          H       0.79735   0.23012   0.63828   0.09873
H          H       0.03800   0.33917   0.57156   0.12250
H          H       0.34756   0.11314   0.70771   0.12854
H          H       0.33082   0.03563   0.77997   0.15021
H          H       0.00503   0.19741   0.78254   0.12663
H          H       0.28169   0.07823   0.85271   0.13967
H          H       0.01704   0.00711   0.93831   0.13886
H          H       0.93244   0.09221   0.82050   0.15273
H          H       0.73589   0.13002   0.86410   0.14187
H          H       0.55421   0.06800   0.89230   0.11814
H          H       0.88170   0.94107   0.92337   0.13153
H          H       0.13840   0.03071   0.98561   0.12926
H          H       0.41411   0.98407   0.87841   0.12234
H          H       0.36447   0.97030   0.00806   0.12335
H          H       0.61867   0.85447   0.77868   0.10977
H          H       0.73093   0.19210   0.51584   0.12371
H          H       0.56355   0.27070   0.63834   0.09711
H          H       0.38959   0.16109   0.57219   0.12190
H          H       0.94314   0.38797   0.70780   0.12985
H          H       0.88881   0.46492   0.78022   0.15014
H          H       0.21073   0.30192   0.78224   0.12842
H          H       0.86493   0.42189   0.85274   0.14037
H          H       0.04452   0.49268   0.93809   0.13890
H          H       0.24699   0.40679   0.82034   0.15460
H          H       0.40017   0.36912   0.86352   0.14192
H          H       0.55356   0.43054   0.89222   0.11723
H          H       0.19496   0.55741   0.92371   0.13077
H          H       0.87581   0.46966   0.98553   0.12951
H          H       0.70734   0.51561   0.87840   0.12180
H          H       0.62719   0.53031   0.00804   0.12298
H          H       0.60281   0.64461   0.77767   0.11028
H          H       0.93856   0.30678   0.98413   0.12440
H          H       0.97158   0.23008   0.86132   0.09675
H          H       0.62151   0.33901   0.92825   0.12197
H          H       0.53836   0.11224   0.79225   0.12969
H          H       0.63277   0.03535   0.71972   0.15063
H          H       0.79592   0.19697   0.71775   0.12643
H          H       0.63964   0.07782   0.64723   0.13990
H          H       0.97650   0.00705   0.56192   0.13872
H          H       0.97396   0.09268   0.67973   0.15483
H          H       0.13237   0.13058   0.63670   0.14173
H          H       0.37654   0.06973   0.60782   0.11685
H          H       0.17778   0.94268   0.57613   0.13071
H          H       0.83274   0.02999   0.51461   0.12930
H          H       0.60213   0.98380   0.62143   0.12146
H          H       0.66827   0.96935   0.49174   0.12310
H          H       0.52712   0.85525   0.72163   0.10969
H          H       0.07430   0.19481   0.98445   0.12383
H          H       0.16698   0.26919   0.86111   0.09700
H          H       0.44801   0.16023   0.92886   0.12332
H          H       0.66897   0.38641   0.79237   0.13023
H          H       0.64691   0.46401   0.72017   0.14985
H          H       0.48669   0.30210   0.71751   0.12802
H          H       0.71313   0.42165   0.64734   0.14007
H          H       0.46193   0.49284   0.56215   0.13699
H          H       0.34594   0.40722   0.67999   0.15430
H          H       0.23026   0.36975   0.63700   0.14111
H          H       0.01572   0.43033   0.60787   0.11803
H          H       0.24636   0.55738   0.57612   0.13065
H          H       0.65265   0.46944   0.51475   0.13086
H          H       0.77767   0.51511   0.62128   0.12131
H          H       0.84038   0.52968   0.49159   0.12191
H          H       0.75211   0.64474   0.72132   0.11116
C          C       0.06670   0.63712   0.49975   0.54878
C          C       0.10220   0.67248   0.46025  -0.01768
C          C       0.20019   0.69988   0.45796  -0.14068
C          C       0.23852   0.73476   0.42268   0.06402
C          C       0.17728   0.74144   0.38906  -0.15550
C          C       0.07872   0.71438   0.39077  -0.04210
C          C       0.04083   0.67991   0.42651  -0.11219
C          C       0.01031   0.72681   0.35536   0.55086
C          C       0.72456   0.88056   0.26574  -0.02618
C          C       0.73118   0.91889   0.23045  -0.10793
C          C       0.90407   0.83491   0.22891   0.09139
C          C       0.88814   0.91368   0.16748   0.19728
C          C       0.80633   0.93173   0.13982  -0.26710
C          C       0.84021   0.96148   0.10207   0.21385
C          C       0.95666   0.96992   0.09113  -0.25775
C          C       0.03832   0.94960   0.11896   0.21054
C          C       0.00500   0.92153   0.15756  -0.24619
C          C       0.26174   0.91796   0.12003  -0.09151
C          C       0.35049   0.94907   0.10542  -0.01370
C          C       0.18297   0.01564   0.08800   0.09114
C          C       0.77291   0.98999   0.03280  -0.11897
C          C       0.63037   0.00874   0.08949   0.08748
C          C       0.66051   0.01770   0.02215  -0.00059
C          C       0.40125   0.13468   0.13731   0.57998
C          C       0.40907   0.19305   0.16173  -0.07027
C          C       0.39351   0.19178   0.20523  -0.13603
C          C       0.43284   0.86421   0.49891   0.55159
C          C       0.43777   0.82819   0.45953  -0.01957
C          C       0.34177   0.80090   0.45750  -0.13868
C          C       0.33910   0.76529   0.42251   0.06102
C          C       0.43426   0.75804   0.38887  -0.15288
C          C       0.53150   0.78493   0.39026  -0.04459
C          C       0.53346   0.81990   0.42584  -0.11049
C          C       0.63502   0.77194   0.35453   0.55359
C          C       0.01127   0.61877   0.26569  -0.02785
C          C       0.03924   0.58068   0.23033  -0.10506
C          C       0.86855   0.66532   0.22908   0.09107
C          C       0.94479   0.58670   0.16755   0.19664
C          C       0.05428   0.56841   0.13985  -0.26782
C          C       0.05797   0.53868   0.10215   0.21623
C          C       0.95234   0.53045   0.09128  -0.25903
C          C       0.84280   0.55117   0.11911   0.21108
C          C       0.83758   0.57923   0.15769  -0.24896
C          C       0.61819   0.58314   0.12031  -0.09206
C          C       0.54405   0.55241   0.10541  -0.00959
C          C       0.72903   0.48588   0.08775   0.09209
C          C       0.19453   0.50983   0.03285  -0.11726
C          C       0.28037   0.49134   0.08949   0.08927
C          C       0.31764   0.48212   0.02216  -0.00349
C          C       0.46200   0.36823   0.13877   0.58219
C          C       0.42993   0.30914   0.16240  -0.07446
C          C       0.40113   0.30949   0.20586  -0.13408
C          C       0.29638   0.63743   0.00061   0.54943
C          C       0.22614   0.67275   0.04016  -0.01867
C          C       0.10059   0.69984   0.04254  -0.13977
C          C       0.02730   0.73450   0.07788   0.06174
C          C       0.08224   0.74128   0.11140  -0.15202
C          C       0.20820   0.71436   0.10966  -0.04376
C          C       0.28043   0.68005   0.07383  -0.11172
C          C       0.26452   0.72689   0.14506   0.55404
C          C       0.39602   0.88128   0.23429  -0.02657
C          C       0.35089   0.91931   0.26970  -0.10785
C          C       0.26247   0.83539   0.27094   0.09213
C          C       0.19898   0.91374   0.33249   0.19419
C          C       0.26231   0.93197   0.36017  -0.26430
C          C       0.19806   0.96173   0.39785   0.21375
C          C       0.07319   0.96987   0.40871  -0.25898
C          C       0.01241   0.94915   0.38090   0.21036
C          C       0.07432   0.92123   0.34231  -0.24866
C          C       0.82134   0.91698   0.37961  -0.09498
C          C       0.70129   0.94755   0.39456  -0.01100
C          C       0.80130   0.01411   0.41233   0.09142
C          C       0.23536   0.99071   0.46714  -0.11845
C          C       0.35995   0.00923   0.41064   0.08695
C          C       0.31951   0.01851   0.47798  -0.00100
C          C       0.46705   0.13348   0.36220   0.57869
C          C       0.40023   0.19206   0.33819  -0.07246
C          C       0.41535   0.19103   0.29473  -0.13453
C          C       0.70445   0.86309   0.00046   0.55227
C          C       0.73597   0.82745   0.03987  -0.02108
C          C       0.85901   0.79953   0.04225  -0.13670
C          C       0.89610   0.76495   0.07774   0.06063
C          C       0.80724   0.75875   0.11132  -0.15313
C          C       0.68331   0.78588   0.10937  -0.04316
C          C       0.64770   0.82028   0.07349  -0.11239
C          C       0.59105   0.77392   0.14473   0.55237
C          C       0.36993   0.61986   0.23421  -0.02784
C          C       0.37975   0.58148   0.26947  -0.10836
C          C       0.46654   0.66551   0.27103   0.08892
C          C       0.46872   0.58658   0.33230   0.19508
C          C       0.37754   0.56841   0.36002  -0.26562
C          C       0.40390   0.53863   0.39769   0.21289
C          C       0.51799   0.53024   0.40847  -0.25609
C          C       0.60684   0.55076   0.38061   0.20883
C          C       0.58368   0.57883   0.34206  -0.24690
C          C       0.79932   0.58274   0.37937  -0.09132
C          C       0.90413   0.55233   0.39447  -0.01251
C          C       0.78616   0.48578   0.41221   0.09044
C          C       0.29713   0.51001   0.46709  -0.11936
C          C       0.22837   0.49172   0.41076   0.08825
C          C       0.20177   0.48246   0.47807  -0.00150
C          C       0.17233   0.36667   0.36220   0.57684
C          C       0.26366   0.30822   0.33823  -0.07046
C          C       0.29055   0.30903   0.29478  -0.13553
C          C       0.93330   0.36288   0.50025   0.54955
C          C       0.89780   0.32751   0.53976  -0.01814
C          C       0.79981   0.30011   0.54205  -0.14055
C          C       0.76148   0.26523   0.57732   0.06409
C          C       0.82272   0.25856   0.61094  -0.15558
C          C       0.92128   0.28561   0.60923  -0.04208
C          C       0.95917   0.32008   0.57350  -0.11204
C          C       0.98969   0.27318   0.64464   0.55079
C          C       0.27544   0.11944   0.73426  -0.02632
C          C       0.26882   0.08111   0.76955  -0.10777
C          C       0.09594   0.16508   0.77109   0.09135
C          C       0.11186   0.08632   0.83252   0.19739
C          C       0.19367   0.06826   0.86018  -0.26725
C          C       0.15979   0.03852   0.89793   0.21421
C          C       0.04334   0.03007   0.90887  -0.25773
C          C       0.96169   0.05040   0.88104   0.21051
C          C       0.99500   0.07846   0.84244  -0.24631
C          C       0.73826   0.08203   0.87997  -0.09171
C          C       0.64951   0.05093   0.89458  -0.01383
C          C       0.81703   0.98435   0.91201   0.09149
C          C       0.22709   0.01000   0.96720  -0.11886
C          C       0.36963   0.99126   0.91051   0.08700
C          C       0.33949   0.98229   0.97785  -0.00017
C          C       0.59875   0.86531   0.86270   0.57991
C          C       0.59093   0.80695   0.83828  -0.07033
C          C       0.60650   0.80822   0.79477  -0.13617
C          C       0.56716   0.13578   0.50109   0.55151
C          C       0.56223   0.17180   0.54048  -0.01947
C          C       0.65823   0.19910   0.54251  -0.13887
C          C       0.66090   0.23471   0.57749   0.06097
C          C       0.56574   0.24195   0.61113  -0.15271
C          C       0.46851   0.21507   0.60975  -0.04470
C          C       0.46654   0.18009   0.57416  -0.11046
C          C       0.36498   0.22806   0.64547   0.55334
C          C       0.98873   0.38122   0.73432  -0.02800
C          C       0.96076   0.41931   0.76967  -0.10536
C          C       0.13145   0.33468   0.77093   0.09134
C          C       0.05521   0.41329   0.83245   0.19664
C          C       0.94572   0.43158   0.86015  -0.26770
C          C       0.94203   0.46132   0.89785   0.21609
C          C       0.04766   0.46955   0.90872  -0.25886
C          C       0.15720   0.44883   0.88089   0.21123
C          C       0.16242   0.42076   0.84232  -0.24901
C          C       0.38181   0.41686   0.87970  -0.09188
C          C       0.45595   0.44758   0.89460  -0.00942
C          C       0.27097   0.51411   0.91226   0.09193
C          C       0.80547   0.49016   0.96715  -0.11706
C          C       0.71963   0.50865   0.91051   0.08927
C          C       0.68237   0.51788   0.97784  -0.00344
C          C       0.53800   0.63176   0.86123   0.58172
C          C       0.57007   0.69086   0.83761  -0.07417
C          C       0.59887   0.69051   0.79414  -0.13411
C          C       0.70362   0.36257  -0.00061   0.54931
C          C       0.77386   0.32724   0.95985  -0.01860
C          C       0.89941   0.30016   0.95746  -0.13976
C          C       0.97270   0.26550   0.92212   0.06177
C          C       0.91776   0.25872   0.88860  -0.15186
C          C       0.79180   0.28563   0.89034  -0.04395
C          C       0.71958   0.31995   0.92617  -0.11182
C          C       0.73548   0.27311   0.85495   0.55411
C          C       0.60399   0.11872   0.76571  -0.02627
C          C       0.64911   0.08068   0.73030  -0.10781
C          C       0.73753   0.16460   0.72907   0.09181
C          C       0.80102   0.08626   0.66751   0.19410
C          C       0.73769   0.06802   0.63983  -0.26449
C          C       0.80194   0.03827   0.60215   0.21368
C          C       0.92681   0.03013   0.59129  -0.25876
C          C       0.98759   0.05084   0.61910   0.20990
C          C       0.92568   0.07876   0.65769  -0.24837
C          C       0.17867   0.08301   0.62039  -0.09534
C          C       0.29871   0.05245   0.60545  -0.01087
C          C       0.19870   0.98589   0.58768   0.09145
C          C       0.76464   0.00929   0.53286  -0.11843
C          C       0.64005   0.99077   0.58936   0.08726
C          C       0.68049   0.98149   0.52202  -0.00095
C          C       0.53295   0.86651   0.63780   0.57891
C          C       0.59978   0.80793   0.66181  -0.07230
C          C       0.58465   0.80897   0.70528  -0.13476
C          C       0.29555   0.13690  -0.00046   0.55205
C          C       0.26404   0.17254   0.96014  -0.02109
C          C       0.14099   0.20046   0.95775  -0.13629
C          C       0.10390   0.23505   0.92226   0.06047
C          C       0.19276   0.24124   0.88868  -0.15332
C          C       0.31669   0.21412   0.89063  -0.04312
C          C       0.35230   0.17971   0.92651  -0.11222
C          C       0.40895   0.22607   0.85527   0.55253
C          C       0.63007   0.38013   0.76579  -0.02790
C          C       0.62025   0.41851   0.73053  -0.10854
C          C       0.53346   0.33448   0.72897   0.08883
C          C       0.53128   0.41342   0.66771   0.19504
C          C       0.62246   0.43158   0.63999  -0.26550
C          C       0.59610   0.46136   0.60232   0.21286
C          C       0.48201   0.46976   0.59153  -0.25633
C          C       0.39316   0.44924   0.61939   0.20879
C          C       0.41633   0.42116   0.65795  -0.24684
C          C       0.20068   0.41725   0.62063  -0.09092
C          C       0.09587   0.44767   0.60553  -0.01234
C          C       0.21384   0.51422   0.58779   0.09036
C          C       0.70288   0.48998   0.53291  -0.11945
C          C       0.77163   0.50828   0.58924   0.08836
C          C       0.79823   0.51753   0.52194  -0.00178
C          C       0.82768   0.63332   0.63781   0.57681
C          C       0.73634   0.69177   0.66177  -0.07039
C          C       0.70946   0.69096   0.70522  -0.13545
C          C       0.42918   0.25134   0.14306  -0.00428
C          C       0.38643   0.25033   0.22737   0.05242
C          C       0.32286   0.25026   0.35728  -0.00359
C          C       0.36377   0.25002   0.27293   0.05171
C          C       0.57082   0.74866   0.85694  -0.00391
C          C       0.61357   0.74966   0.77264   0.05233
C          C       0.67715   0.74973   0.64273  -0.00392
C          C       0.63624   0.74998   0.72707   0.05179
N          N       0.83194   0.82845   0.26439  -0.27417
N          N       0.84567   0.88972   0.20726   0.02138
N          N       0.15511   0.96054   0.10883   0.01185
N          N       0.30076   0.00931   0.08554  -0.26070
N          N       0.75310   0.98431   0.07578   0.01504
N          N       0.57327   0.02893   0.05762  -0.24984
N          N       0.90571   0.67130   0.26449  -0.27413
N          N       0.94791   0.61040   0.20731   0.02110
N          N       0.73603   0.54058   0.10894   0.01409
N          N       0.61372   0.49246   0.08516  -0.26532
N          N       0.17136   0.51564   0.07582   0.01219
N          N       0.36943   0.47112   0.05759  -0.24955
N          N       0.34105   0.82922   0.23548  -0.27247
N          N       0.26580   0.88997   0.29275   0.02314
N          N       0.88478   0.95955   0.39107   0.01625
N          N       0.69004   0.00750   0.41487  -0.26184
N          N       0.26167   0.98484   0.42420   0.01707
N          N       0.39609   0.02955   0.44263  -0.25015
N          N       0.42338   0.67201   0.23561  -0.27250
N          N       0.44165   0.61065   0.29263   0.02341
N          N       0.72431   0.54019   0.39079   0.01491
N          N       0.89478   0.49247   0.41485  -0.26060
N          N       0.31365   0.51580   0.42415   0.01631
N          N       0.16005   0.47157   0.44281  -0.25050
N          N       0.16806   0.17154   0.73562  -0.27486
N          N       0.15434   0.11028   0.79274   0.02169
N          N       0.84489   0.03945   0.89117   0.01175
N          N       0.69924   0.99068   0.91447  -0.26044
N          N       0.24690   0.01569   0.92423   0.01471
N          N       0.42673   0.97106   0.94239  -0.24948
N          N       0.09429   0.32870   0.73551  -0.27403
N          N       0.05209   0.38960   0.79269   0.02112
N          N       0.26397   0.45942   0.89106   0.01393
N          N       0.38628   0.50754   0.91484  -0.26541
N          N       0.82865   0.48435   0.92418   0.01216
N          N       0.63057   0.52887   0.94242  -0.24986
N          N       0.65895   0.17077   0.76452  -0.27257
N          N       0.73420   0.11002   0.70725   0.02318
N          N       0.11522   0.04045   0.60893   0.01655
N          N       0.30996   0.99250   0.58514  -0.26198
N          N       0.73833   0.01515   0.57581   0.01713
N          N       0.60392   0.97044   0.55737  -0.25017
N          N       0.57662   0.32799   0.76439  -0.27182
N          N       0.55836   0.38935   0.70737   0.02309
N          N       0.27569   0.45980   0.60922   0.01509
N          N       0.10522   0.50752   0.58516  -0.26112
N          N       0.68635   0.48419   0.57585   0.01651
N          N       0.83995   0.52843   0.55719  -0.25066
O          O       0.12911   0.63070   0.52819  -0.56539
O          O       0.97344   0.61392   0.50292  -0.53612
O          O       0.93666   0.69118   0.35336  -0.53561
O          O       0.02296   0.77290   0.32867  -0.58620
O          O       0.42313   0.07505   0.15165  -0.57451
O          O       0.37231   0.15306   0.10118  -0.54610
O          O       0.34262   0.86956   0.52751  -0.56739
O          O       0.52125   0.88893   0.50193  -0.53898
O          O       0.71426   0.80525   0.35340  -0.53673
O          O       0.64527   0.72798   0.32704  -0.58919
O          O       0.42306   0.42756   0.15357  -0.57427
O          O       0.52960   0.35040   0.10295  -0.54790
O          O       0.24011   0.63329   0.97180  -0.56478
O          O       0.41244   0.61174   0.99775  -0.53748
O          O       0.37434   0.69166   0.14708  -0.53668
O          O       0.20522   0.77286   0.17179  -0.58733
O          O       0.50325   0.07409   0.34758  -0.57377
O          O       0.47955   0.15159   0.39815  -0.54517
O          O       0.78899   0.86694   0.97137  -0.56662
O          O       0.59094   0.88893   0.99798  -0.54017
O          O       0.47916   0.80831   0.14577  -0.53668
O          O       0.62305   0.72955   0.17232  -0.58727
O          O       0.14840   0.42596   0.34742  -0.57440
O          O       0.12585   0.34845   0.39839  -0.54339
O          O       0.87089   0.36930   0.47181  -0.56599
O          O       0.02656   0.38608   0.49709  -0.53623
O          O       0.06334   0.30881   0.64665  -0.53598
O          O       0.97704   0.22709   0.67133  -0.58567
O          O       0.57687   0.92494   0.84835  -0.57501
O          O       0.62769   0.84694   0.89882  -0.54554
O          O       0.65739   0.13043   0.47250  -0.56764
O          O       0.47876   0.11106   0.49807  -0.53887
O          O       0.28574   0.19475   0.64660  -0.53641
O          O       0.35473   0.27202   0.67297  -0.58906
O          O       0.57694   0.57243   0.84643  -0.57387
O          O       0.47040   0.64960   0.89705  -0.54793
O          O       0.75989   0.36671   0.02820  -0.56435
O          O       0.58756   0.38825   0.00225  -0.53773
O          O       0.62567   0.30834   0.85293  -0.53681
O          O       0.79478   0.22713   0.82822  -0.58738
O          O       0.49675   0.92591   0.65242  -0.57398
O          O       0.52046   0.84841   0.60186  -0.54531
O          O       0.21102   0.13306   0.02864  -0.56637
O          O       0.40906   0.11107   0.00202  -0.54009
O          O       0.52084   0.19169   0.85424  -0.53627
O          O       0.37695   0.27045   0.82768  -0.58799
O          O       0.85160   0.57403   0.65259  -0.57385
O          O       0.87415   0.65154   0.60161  -0.54397

