data_crystal

_audit_creation_method 'AiiDA-DDEC plugin'

_cell_length_a        29.69127
_cell_length_b        29.69096
_cell_length_c        29.69095

_cell_angle_alpha     59.99670
_cell_angle_beta     59.99627
_cell_angle_gamma     59.99681

_symmetry_space_group_name_Hall 'P 1'
_symmetry_space_group_name_H-M  'P 1'

loop_
_symmetry_equiv_pos_as_xyz
 'x,y,z'

loop_
_atom_site_label
_atom_site_type_symbol
_atom_site_fract_x
_atom_site_fract_y
_atom_site_fract_z
_atom_site_charge
Cu         Cu      0.00344   0.35649   0.64351   0.90908
Cu         Cu      0.00230   0.27418   0.72582   0.92495
Cu         Cu      0.35648   0.00344   0.99652   0.90917
Cu         Cu      0.27412   0.00231   0.99771   0.92470
Cu         Cu      0.99656   0.64351   0.35649   0.90910
Cu         Cu      0.99771   0.72581   0.27418   0.92497
Cu         Cu      0.64352   0.99656   0.00348   0.90911
Cu         Cu      0.72588   0.99769   0.00229   0.92481
Cu         Cu      0.99656   0.00349   0.64352   0.90905
Cu         Cu      0.99770   0.00229   0.72589   0.92465
Cu         Cu      0.64351   0.35649   0.99655   0.90918
Cu         Cu      0.72582   0.27417   0.99771   0.92489
Cu         Cu      0.00344   0.99651   0.35649   0.90904
Cu         Cu      0.00230   0.99771   0.27412   0.92452
Cu         Cu      0.35649   0.64351   0.00345   0.90921
Cu         Cu      0.27418   0.72582   0.00229   0.92468
Cu         Cu      0.35649   0.99656   0.64352   0.90918
Cu         Cu      0.27417   0.99770   0.72583   0.92491
Cu         Cu      0.00348   0.64352   0.99657   0.90924
Cu         Cu      0.00229   0.72589   0.99770   0.92486
Cu         Cu      0.64351   0.00344   0.35649   0.90912
Cu         Cu      0.72583   0.00230   0.27417   0.92483
Cu         Cu      0.99652   0.35648   0.00343   0.90936
Cu         Cu      0.99771   0.27411   0.00231   0.92486
H          H       0.98803   0.16540   0.67999   0.14395
H          H       0.96126   0.17753   0.54411   0.13452
H          H       0.96658   0.31948   0.54597   0.14622
H          H       0.91252   0.25461   0.48000   0.08764
H          H       0.98591   0.23030   0.45250   0.08863
H          H       0.94812   0.25807   0.37303   0.12043
H          H       0.16544   0.98799   0.16660   0.14342
H          H       0.17749   0.96129   0.31715   0.13137
H          H       0.31948   0.96658   0.16794   0.14624
H          H       0.25465   0.91249   0.35288   0.08774
H          H       0.23036   0.98592   0.33127   0.08871
H          H       0.25808   0.94813   0.42095   0.12010
H          H       0.16662   0.67996   0.16541   0.14340
H          H       0.31716   0.54407   0.17750   0.13148
H          H       0.16802   0.54599   0.31946   0.14604
H          H       0.35290   0.48000   0.25460   0.08784
H          H       0.33132   0.45248   0.23030   0.08865
H          H       0.42089   0.37296   0.25808   0.12042
H          H       0.68000   0.16662   0.98801   0.14377
H          H       0.54401   0.31718   0.96131   0.13199
H          H       0.54608   0.16797   0.96656   0.14595
H          H       0.48006   0.35286   0.91251   0.08622
H          H       0.45257   0.33130   0.98590   0.08897
H          H       0.37291   0.42094   0.94809   0.12043
H          H       0.16661   0.98801   0.68001   0.14390
H          H       0.31718   0.96131   0.54402   0.13204
H          H       0.16796   0.96656   0.54609   0.14579
H          H       0.35287   0.91251   0.48006   0.08666
H          H       0.33129   0.98590   0.45258   0.08879
H          H       0.42096   0.94808   0.37290   0.12051
H          H       0.67997   0.16543   0.16659   0.14359
H          H       0.54410   0.17748   0.31715   0.13147
H          H       0.54603   0.31946   0.16798   0.14610
H          H       0.48001   0.25460   0.35290   0.08793
H          H       0.45248   0.23030   0.33131   0.08868
H          H       0.37292   0.25809   0.42093   0.12034
H          H       0.98800   0.16659   0.16544   0.14361
H          H       0.96130   0.31714   0.17747   0.13169
H          H       0.96659   0.16791   0.31947   0.14616
H          H       0.91249   0.35288   0.25465   0.08765
H          H       0.98593   0.33126   0.23036   0.08897
H          H       0.94813   0.42097   0.25808   0.12028
H          H       0.16542   0.67999   0.98804   0.14402
H          H       0.17752   0.54412   0.96126   0.13446
H          H       0.31948   0.54599   0.96659   0.14624
H          H       0.25461   0.48000   0.91252   0.08747
H          H       0.23030   0.45250   0.98592   0.08894
H          H       0.25807   0.37300   0.94812   0.12040
H          H       0.16544   0.16659   0.67996   0.14369
H          H       0.17752   0.31715   0.54407   0.13168
H          H       0.31947   0.16801   0.54600   0.14602
H          H       0.25459   0.35290   0.48002   0.08784
H          H       0.23030   0.33130   0.45249   0.08860
H          H       0.25808   0.42091   0.37294   0.12036
H          H       0.98801   0.68000   0.16660   0.14376
H          H       0.96130   0.54400   0.31718   0.13185
H          H       0.96655   0.54607   0.16798   0.14590
H          H       0.91251   0.48007   0.35286   0.08635
H          H       0.98590   0.45258   0.33129   0.08880
H          H       0.94809   0.37291   0.42095   0.12037
H          H       0.68000   0.98803   0.16542   0.14408
H          H       0.54412   0.96125   0.17753   0.13445
H          H       0.54598   0.96658   0.31948   0.14622
H          H       0.48002   0.91252   0.25460   0.08778
H          H       0.45251   0.98591   0.23030   0.08861
H          H       0.37301   0.94812   0.25807   0.12044
H          H       0.16659   0.16545   0.98800   0.14363
H          H       0.31715   0.17749   0.96129   0.13133
H          H       0.16793   0.31947   0.96658   0.14622
H          H       0.35288   0.25464   0.91250   0.08756
H          H       0.33126   0.23036   0.98592   0.08910
H          H       0.42095   0.25808   0.94813   0.12019
H          H       0.01197   0.83460   0.32001   0.14366
H          H       0.03874   0.82247   0.45589   0.13478
H          H       0.03342   0.68052   0.45403   0.14625
H          H       0.08748   0.74539   0.52000   0.08771
H          H       0.01409   0.76970   0.54751   0.08854
H          H       0.05188   0.74193   0.62697   0.12045
H          H       0.83456   0.01200   0.83340   0.14372
H          H       0.82251   0.03871   0.68286   0.13155
H          H       0.68053   0.03342   0.83207   0.14615
H          H       0.74535   0.08751   0.64712   0.08779
H          H       0.76964   0.01408   0.66874   0.08873
H          H       0.74192   0.05187   0.57905   0.12014
H          H       0.83338   0.32004   0.83459   0.14358
H          H       0.68284   0.45593   0.82251   0.13145
H          H       0.83198   0.45400   0.68054   0.14590
H          H       0.64710   0.52000   0.74541   0.08759
H          H       0.66869   0.54752   0.76970   0.08891
H          H       0.57911   0.62704   0.74192   0.12054
H          H       0.32000   0.83338   0.01199   0.14351
H          H       0.45599   0.68282   0.03869   0.13190
H          H       0.45392   0.83203   0.03345   0.14612
H          H       0.51995   0.64714   0.08749   0.08633
H          H       0.54743   0.66870   0.01410   0.08865
H          H       0.62709   0.57906   0.05191   0.12020
H          H       0.83339   0.01199   0.32000   0.14367
H          H       0.68282   0.03869   0.45598   0.13190
H          H       0.83204   0.03344   0.45391   0.14601
H          H       0.64714   0.08749   0.51995   0.08642
H          H       0.66871   0.01410   0.54743   0.08866
H          H       0.57904   0.05192   0.62711   0.12022
H          H       0.32004   0.83457   0.83341   0.14364
H          H       0.45590   0.82252   0.68285   0.13128
H          H       0.45398   0.68054   0.83203   0.14833
H          H       0.51999   0.74540   0.64710   0.08747
H          H       0.54752   0.76970   0.66870   0.08883
H          H       0.62708   0.74191   0.57907   0.12015
H          H       0.01200   0.83341   0.83456   0.14385
H          H       0.03871   0.68286   0.82253   0.13172
H          H       0.03341   0.83209   0.68053   0.14590
H          H       0.08751   0.64712   0.74535   0.08796
H          H       0.01408   0.66874   0.76965   0.08902
H          H       0.05187   0.57903   0.74193   0.12061
H          H       0.83458   0.32001   0.01197   0.14388
H          H       0.82248   0.45587   0.03874   0.13475
H          H       0.68052   0.45401   0.03341   0.14612
H          H       0.74539   0.52000   0.08748   0.08780
H          H       0.76970   0.54750   0.01409   0.08877
H          H       0.74193   0.62700   0.05188   0.12060
H          H       0.83456   0.83341   0.32004   0.14354
H          H       0.82248   0.68285   0.45594   0.13179
H          H       0.68053   0.83199   0.45401   0.14600
H          H       0.74541   0.64710   0.51998   0.08759
H          H       0.76970   0.66869   0.54752   0.08893
H          H       0.74192   0.57909   0.62706   0.12034
H          H       0.01199   0.32000   0.83340   0.14377
H          H       0.03870   0.45600   0.68283   0.13162
H          H       0.03345   0.45393   0.83203   0.14614
H          H       0.08749   0.51993   0.64715   0.08613
H          H       0.01410   0.54742   0.66871   0.08846
H          H       0.05191   0.62709   0.57906   0.12007
H          H       0.32001   0.01197   0.83458   0.14396
H          H       0.45588   0.03875   0.82247   0.13474
H          H       0.45402   0.03342   0.68052   0.14607
H          H       0.51999   0.08748   0.74540   0.08785
H          H       0.54749   0.01409   0.76970   0.08877
H          H       0.62699   0.05188   0.74193   0.12068
H          H       0.83341   0.83455   0.01200   0.14373
H          H       0.68285   0.82251   0.03871   0.13149
H          H       0.83207   0.68053   0.03342   0.14619
H          H       0.64712   0.74536   0.08751   0.08778
H          H       0.66874   0.76964   0.01408   0.08883
H          H       0.57905   0.74192   0.05187   0.12017
C          C       0.97769   0.24532   0.61595  -0.01260
C          C       0.98065   0.18990   0.64085  -0.12190
C          C       0.97515   0.16618   0.61417  -0.00678
C          C       0.96541   0.19748   0.56345  -0.23116
C          C       0.96167   0.25299   0.53954   0.24368
C          C       0.96842   0.27665   0.56551  -0.18792
C          C       0.98105   0.10637   0.63982   0.58582
C          C       0.98585   0.27095   0.64245   0.58638
C          C       0.94944   0.26711   0.45835  -0.01491
C          C       0.94776   0.31140   0.40304   0.09250
C          C       0.94764   0.29872   0.36349  -0.21551
C          C       0.24532   0.97769   0.16106  -0.01300
C          C       0.18991   0.98063   0.18865  -0.12208
C          C       0.16619   0.97512   0.24456  -0.00639
C          C       0.19749   0.96541   0.27371  -0.22818
C          C       0.25301   0.96167   0.24583   0.24365
C          C       0.27665   0.96842   0.18944  -0.18758
C          C       0.10637   0.98101   0.27284   0.58594
C          C       0.27094   0.98586   0.10076   0.58650
C          C       0.26715   0.94942   0.32513  -0.01471
C          C       0.31140   0.94773   0.33788   0.09232
C          C       0.29871   0.94763   0.39023  -0.21489
C          C       0.16106   0.61596   0.24531  -0.01298
C          C       0.18866   0.64083   0.18990  -0.12185
C          C       0.24457   0.61416   0.16616  -0.00630
C          C       0.27372   0.56342   0.19745  -0.22807
C          C       0.24584   0.53954   0.25296   0.24350
C          C       0.18946   0.56552   0.27663  -0.18774
C          C       0.27283   0.63980   0.10636   0.58592
C          C       0.10076   0.64248   0.27091   0.58707
C          C       0.32513   0.45835   0.26710  -0.01502
C          C       0.33785   0.40304   0.31139   0.09293
C          C       0.39020   0.36348   0.29871  -0.21591
C          C       0.61600   0.16107   0.97771  -0.01259
C          C       0.64085   0.18868   0.98064  -0.12229
C          C       0.61415   0.24460   0.97512  -0.00638
C          C       0.56340   0.27374   0.96542  -0.22852
C          C       0.53954   0.24583   0.96169   0.24314
C          C       0.56555   0.18945   0.96844  -0.18784
C          C       0.63978   0.27287   0.98101   0.58564
C          C       0.64256   0.10077   0.98588   0.58648
C          C       0.45838   0.32512   0.94944  -0.01374
C          C       0.40306   0.33786   0.94776   0.09298
C          C       0.36349   0.39021   0.94764  -0.21553
C          C       0.16108   0.97771   0.61600  -0.01256
C          C       0.18868   0.98064   0.64086  -0.12225
C          C       0.24460   0.97512   0.61415  -0.00627
C          C       0.27374   0.96541   0.56341  -0.22860
C          C       0.24583   0.96168   0.53954   0.24322
C          C       0.18945   0.96843   0.56556  -0.18787
C          C       0.27287   0.98100   0.63979   0.58515
C          C       0.10077   0.98587   0.64257   0.58634
C          C       0.32512   0.94944   0.45838  -0.01386
C          C       0.33786   0.94776   0.40306   0.09276
C          C       0.39021   0.94764   0.36349  -0.21546
C          C       0.61596   0.24531   0.16106  -0.01303
C          C       0.64083   0.18990   0.18865  -0.12186
C          C       0.61416   0.16616   0.24456  -0.00640
C          C       0.56343   0.19746   0.27371  -0.22828
C          C       0.53954   0.25297   0.24584   0.24381
C          C       0.56552   0.27663   0.18945  -0.18798
C          C       0.63980   0.10636   0.27283   0.58588
C          C       0.64249   0.27091   0.10077   0.58721
C          C       0.45835   0.26709   0.32514  -0.01500
C          C       0.40304   0.31138   0.33786   0.09301
C          C       0.36347   0.29870   0.39022  -0.21558
C          C       0.97769   0.16106   0.24532  -0.01299
C          C       0.98064   0.18864   0.18991  -0.12201
C          C       0.97513   0.24455   0.16619  -0.00632
C          C       0.96541   0.27371   0.19749  -0.22878
C          C       0.96166   0.24583   0.25302   0.24361
C          C       0.96842   0.18944   0.27665  -0.18757
C          C       0.98101   0.27283   0.10637   0.58582
C          C       0.98586   0.10076   0.27094   0.58680
C          C       0.94942   0.32513   0.26714  -0.01474
C          C       0.94773   0.33788   0.31139   0.09219
C          C       0.94764   0.39024   0.29870  -0.21520
C          C       0.24533   0.61595   0.97769  -0.01274
C          C       0.18990   0.64085   0.98066  -0.12216
C          C       0.16618   0.61417   0.97516  -0.00647
C          C       0.19749   0.56345   0.96542  -0.23134
C          C       0.25300   0.53953   0.96167   0.24400
C          C       0.27666   0.56550   0.96842  -0.18797
C          C       0.10637   0.63982   0.98105   0.58584
C          C       0.27095   0.64245   0.98585   0.58662
C          C       0.26711   0.45834   0.94944  -0.01504
C          C       0.31139   0.40304   0.94776   0.09269
C          C       0.29872   0.36348   0.94764  -0.21554
C          C       0.24531   0.16107   0.61596  -0.01301
C          C       0.18990   0.18866   0.64083  -0.12175
C          C       0.16615   0.24456   0.61416  -0.00641
C          C       0.19746   0.27371   0.56343  -0.22869
C          C       0.25297   0.24583   0.53955   0.24364
C          C       0.27664   0.18945   0.56552  -0.18785
C          C       0.10635   0.27283   0.63980   0.58571
C          C       0.27090   0.10077   0.64249   0.58714
C          C       0.26709   0.32513   0.45836  -0.01497
C          C       0.31137   0.33786   0.40305   0.09304
C          C       0.29870   0.39021   0.36349  -0.21581
C          C       0.97771   0.61600   0.16108  -0.01269
C          C       0.98064   0.64085   0.18868  -0.12226
C          C       0.97512   0.61415   0.24460  -0.00630
C          C       0.96542   0.56340   0.27374  -0.22833
C          C       0.96168   0.53955   0.24582   0.24289
C          C       0.96843   0.56556   0.18944  -0.18768
C          C       0.98101   0.63978   0.27288   0.58530
C          C       0.98588   0.64257   0.10077   0.58638
C          C       0.94944   0.45839   0.32512  -0.01383
C          C       0.94776   0.40307   0.33786   0.09314
C          C       0.94764   0.36349   0.39021  -0.21540
C          C       0.61595   0.97768   0.24533  -0.01242
C          C       0.64085   0.98066   0.18990  -0.12214
C          C       0.61417   0.97516   0.16618  -0.00658
C          C       0.56345   0.96541   0.19749  -0.23132
C          C       0.53954   0.96167   0.25300   0.24368
C          C       0.56551   0.96841   0.27666  -0.18797
C          C       0.63982   0.98105   0.10637   0.58581
C          C       0.64246   0.98585   0.27095   0.58634
C          C       0.45835   0.94944   0.26711  -0.01545
C          C       0.40305   0.94775   0.31139   0.09281
C          C       0.36349   0.94764   0.29872  -0.21574
C          C       0.16106   0.24532   0.97769  -0.01290
C          C       0.18865   0.18991   0.98064  -0.12201
C          C       0.24456   0.16619   0.97513  -0.00631
C          C       0.27371   0.19749   0.96541  -0.22839
C          C       0.24583   0.25301   0.96167   0.24374
C          C       0.18944   0.27665   0.96842  -0.18768
C          C       0.27284   0.10637   0.98102   0.58583
C          C       0.10075   0.27093   0.98587   0.58670
C          C       0.32513   0.26714   0.94942  -0.01504
C          C       0.33788   0.31139   0.94773   0.09231
C          C       0.39023   0.29870   0.94764  -0.21511
C          C       0.02231   0.75468   0.38405  -0.01243
C          C       0.01935   0.81010   0.35915  -0.12214
C          C       0.02485   0.83382   0.38583  -0.00670
C          C       0.03459   0.80252   0.43656  -0.23102
C          C       0.03833   0.74701   0.46046   0.24371
C          C       0.03158   0.72335   0.43450  -0.18807
C          C       0.01896   0.89363   0.36018   0.58595
C          C       0.01415   0.72905   0.35756   0.58644
C          C       0.05056   0.73289   0.54166  -0.01454
C          C       0.05225   0.68860   0.59696   0.09229
C          C       0.05236   0.70128   0.63651  -0.21527
C          C       0.75468   0.02231   0.83894  -0.01260
C          C       0.81009   0.01937   0.81135  -0.12208
C          C       0.83381   0.02488   0.75544  -0.00616
C          C       0.80251   0.03459   0.72629  -0.22907
C          C       0.74699   0.03833   0.75417   0.24401
C          C       0.72335   0.03157   0.81056  -0.18774
C          C       0.89363   0.01899   0.72717   0.58587
C          C       0.72906   0.01414   0.89925   0.58634
C          C       0.73286   0.05058   0.67488  -0.01482
C          C       0.68860   0.05227   0.66212   0.09227
C          C       0.70129   0.05237   0.60977  -0.21489
C          C       0.83894   0.38404   0.75469  -0.01299
C          C       0.81134   0.35917   0.81011  -0.12179
C          C       0.75544   0.38584   0.83384  -0.00641
C          C       0.72628   0.43658   0.80255  -0.22801
C          C       0.75416   0.46046   0.74704   0.24354
C          C       0.81055   0.43448   0.72338  -0.18778
C          C       0.72717   0.36020   0.89365   0.58576
C          C       0.89924   0.35752   0.72910   0.58708
C          C       0.67487   0.54165   0.73291  -0.01477
C          C       0.66215   0.59696   0.68862   0.09288
C          C       0.60980   0.63652   0.70129  -0.21593
C          C       0.38401   0.83893   0.02229  -0.01279
C          C       0.35915   0.81132   0.01936  -0.12220
C          C       0.38585   0.75540   0.02488  -0.00634
C          C       0.43660   0.72626   0.03459  -0.22848
C          C       0.46046   0.75417   0.03831   0.24305
C          C       0.43445   0.81055   0.03156  -0.18754
C          C       0.36022   0.72713   0.01900   0.58549
C          C       0.35744   0.89923   0.01412   0.58678
C          C       0.54162   0.67488   0.05056  -0.01374
C          C       0.59694   0.66214   0.05224   0.09282
C          C       0.63651   0.60979   0.05236  -0.21554
C          C       0.83893   0.02229   0.38400  -0.01270
C          C       0.81132   0.01936   0.35915  -0.12229
C          C       0.75541   0.02488   0.38585  -0.00620
C          C       0.72626   0.03459   0.43660  -0.22851
C          C       0.75417   0.03832   0.46046   0.24293
C          C       0.81055   0.03157   0.43444  -0.18757
C          C       0.72713   0.01900   0.36022   0.58527
C          C       0.89923   0.01412   0.35744   0.58645
C          C       0.67488   0.05056   0.54162  -0.01387
C          C       0.66214   0.05224   0.59695   0.09280
C          C       0.60979   0.05236   0.63652  -0.21560
C          C       0.38404   0.75469   0.83894  -0.01305
C          C       0.35917   0.81010   0.81135  -0.12182
C          C       0.38584   0.83384   0.75545  -0.00660
C          C       0.43657   0.80254   0.72629  -0.22834
C          C       0.46047   0.74703   0.75417   0.24376
C          C       0.43448   0.72337   0.81055  -0.18947
C          C       0.36020   0.89364   0.72718   0.58602
C          C       0.35752   0.72909   0.89924   0.58698
C          C       0.54165   0.73290   0.67486  -0.01481
C          C       0.59696   0.68862   0.66214   0.09293
C          C       0.63653   0.70130   0.60979  -0.21557
C          C       0.02231   0.83893   0.75469  -0.01288
C          C       0.01936   0.81136   0.81010  -0.12191
C          C       0.02487   0.75545   0.83381  -0.00632
C          C       0.03459   0.72629   0.80251  -0.22887
C          C       0.03834   0.75417   0.74699   0.24386
C          C       0.03158   0.81056   0.72335  -0.18780
C          C       0.01899   0.72717   0.89363   0.58583
C          C       0.01414   0.89924   0.72907   0.58680
C          C       0.05058   0.67487   0.73286  -0.01489
C          C       0.05227   0.66212   0.68861   0.09236
C          C       0.05236   0.60976   0.70130  -0.21529
C          C       0.75468   0.38405   0.02231  -0.01245
C          C       0.81010   0.35915   0.01934  -0.12223
C          C       0.83383   0.38583   0.02484  -0.00651
C          C       0.80252   0.43655   0.03459  -0.23127
C          C       0.74700   0.46047   0.03833   0.24404
C          C       0.72334   0.43450   0.03158  -0.18815
C          C       0.89364   0.36018   0.01895   0.58564
C          C       0.72905   0.35755   0.01415   0.58642
C          C       0.73289   0.54166   0.05056  -0.01477
C          C       0.68861   0.59696   0.05225   0.09263
C          C       0.70128   0.63652   0.05236  -0.21532
C          C       0.75469   0.83893   0.38404  -0.01307
C          C       0.81010   0.81134   0.35918  -0.12165
C          C       0.83385   0.75544   0.38584  -0.00641
C          C       0.80254   0.72629   0.43658  -0.22868
C          C       0.74703   0.75417   0.46046   0.24368
C          C       0.72336   0.81055   0.43448  -0.18784
C          C       0.89365   0.72717   0.36020   0.58574
C          C       0.72910   0.89923   0.35751   0.58709
C          C       0.73291   0.67487   0.54164  -0.01502
C          C       0.68863   0.66214   0.59695   0.09300
C          C       0.70130   0.60979   0.63652  -0.21565
C          C       0.02229   0.38400   0.83893  -0.01278
C          C       0.01936   0.35915   0.81132  -0.12213
C          C       0.02488   0.38585   0.75541  -0.00647
C          C       0.03459   0.43660   0.72626  -0.22842
C          C       0.03832   0.46045   0.75418   0.24271
C          C       0.03157   0.43444   0.81056  -0.18758
C          C       0.01899   0.36022   0.72713   0.58531
C          C       0.01412   0.35743   0.89923   0.58650
C          C       0.05056   0.54161   0.67489  -0.01350
C          C       0.05224   0.59693   0.66215   0.09300
C          C       0.05236   0.63651   0.60979  -0.21548
C          C       0.38405   0.02231   0.75468  -0.01255
C          C       0.35915   0.01934   0.81010  -0.12202
C          C       0.38583   0.02484   0.83383  -0.00664
C          C       0.43655   0.03459   0.80252  -0.23117
C          C       0.46046   0.03833   0.74701   0.24386
C          C       0.43449   0.03159   0.72334  -0.18820
C          C       0.36018   0.01895   0.89364   0.58570
C          C       0.35755   0.01415   0.72906   0.58652
C          C       0.54165   0.05056   0.73289  -0.01496
C          C       0.59696   0.05225   0.68861   0.09272
C          C       0.63651   0.05236   0.70129  -0.21549
C          C       0.83894   0.75468   0.02231  -0.01257
C          C       0.81136   0.81009   0.01936  -0.12195
C          C       0.75545   0.83381   0.02487  -0.00617
C          C       0.72629   0.80251   0.03459  -0.22900
C          C       0.75417   0.74699   0.03833   0.24382
C          C       0.81056   0.72335   0.03158  -0.18774
C          C       0.72717   0.89363   0.01899   0.58588
C          C       0.89925   0.72907   0.01414   0.58632
C          C       0.67488   0.73286   0.05058  -0.01505
C          C       0.66212   0.68861   0.05227   0.09232
C          C       0.60977   0.70130   0.05236  -0.21504
O          O       0.98887   0.24242   0.69100  -0.52879
O          O       0.98965   0.31940   0.61417  -0.54968
O          O       0.98466   0.08203   0.68824  -0.53986
O          O       0.98265   0.08392   0.61144  -0.54004
O          O       0.95206   0.28837   0.49068  -0.19750
O          O       0.24241   0.98886   0.07773  -0.52923
O          O       0.31938   0.98969   0.07676  -0.54898
O          O       0.08206   0.98458   0.24514  -0.54060
O          O       0.08389   0.98265   0.32205  -0.53924
O          O       0.28841   0.95203   0.26892  -0.19779
O          O       0.07771   0.69102   0.24236  -0.52926
O          O       0.07678   0.61423   0.31937  -0.54980
O          O       0.24514   0.68822   0.08203  -0.54047
O          O       0.32204   0.61142   0.08388  -0.53934
O          O       0.26893   0.49068   0.28835  -0.19753
O          O       0.69109   0.07773   0.98896  -0.52877
O          O       0.61433   0.07680   0.98962  -0.54988
O          O       0.68820   0.24517   0.98460  -0.54033
O          O       0.61141   0.32209   0.98263  -0.53929
O          O       0.49069   0.26891   0.95206  -0.19752
O          O       0.07773   0.98897   0.69109  -0.52831
O          O       0.07680   0.98960   0.61434  -0.55012
O          O       0.24516   0.98462   0.68820  -0.54007
O          O       0.32210   0.98260   0.61143  -0.53918
O          O       0.26891   0.95206   0.49069  -0.19776
O          O       0.69102   0.24235   0.07772  -0.52907
O          O       0.61423   0.31937   0.07678  -0.54998
O          O       0.68822   0.08203   0.24512  -0.54034
O          O       0.61143   0.08388   0.32204  -0.53942
O          O       0.49068   0.28835   0.26893  -0.19777
O          O       0.98886   0.07773   0.24240  -0.52930
O          O       0.98969   0.07676   0.31938  -0.54944
O          O       0.98460   0.24513   0.08206  -0.54047
O          O       0.98264   0.32205   0.08389  -0.53942
O          O       0.95203   0.26892   0.28841  -0.19787
O          O       0.24242   0.69100   0.98888  -0.52889
O          O       0.31940   0.61418   0.98964  -0.54971
O          O       0.08203   0.68823   0.98468  -0.53998
O          O       0.08392   0.61146   0.98263  -0.53997
O          O       0.28837   0.49067   0.95206  -0.19765
O          O       0.24235   0.07772   0.69103  -0.52901
O          O       0.31937   0.07679   0.61423  -0.55025
O          O       0.08202   0.24514   0.68822  -0.54015
O          O       0.08388   0.32205   0.61143  -0.53946
O          O       0.28835   0.26892   0.49069  -0.19772
O          O       0.98896   0.69109   0.07774  -0.52856
O          O       0.98962   0.61433   0.07680  -0.54969
O          O       0.98462   0.68820   0.24517  -0.54019
O          O       0.98262   0.61141   0.32210  -0.53917
O          O       0.95206   0.49070   0.26890  -0.19740
O          O       0.69101   0.98886   0.24242  -0.52870
O          O       0.61417   0.98966   0.31939  -0.54967
O          O       0.68824   0.98466   0.08203  -0.53976
O          O       0.61145   0.98265   0.08392  -0.54016
O          O       0.49068   0.95206   0.28837  -0.19724
O          O       0.07773   0.24241   0.98885  -0.52926
O          O       0.07675   0.31937   0.98971  -0.54928
O          O       0.24514   0.08206   0.98460  -0.54040
O          O       0.32205   0.08389   0.98265  -0.53948
O          O       0.26892   0.28841   0.95204  -0.19784
O          O       0.01113   0.75758   0.30900  -0.52903
O          O       0.01035   0.68060   0.38584  -0.54951
O          O       0.01535   0.91797   0.31177  -0.54034
O          O       0.01735   0.91608   0.38856  -0.53962
O          O       0.04795   0.71163   0.50933  -0.19769
O          O       0.75759   0.01114   0.92227  -0.52894
O          O       0.68062   0.01031   0.92325  -0.54931
O          O       0.91794   0.01542   0.75486  -0.54011
O          O       0.91612   0.01735   0.67796  -0.53976
O          O       0.71159   0.04797   0.73108  -0.19801
O          O       0.92229   0.30898   0.75764  -0.52906
O          O       0.92322   0.38577   0.68063  -0.55005
O          O       0.75486   0.31178   0.91797  -0.54035
O          O       0.67796   0.38858   0.91612  -0.53940
O          O       0.73107   0.50931   0.71166  -0.19784
O          O       0.30892   0.92227   0.01104  -0.52930
O          O       0.38568   0.92320   0.01039  -0.54964
O          O       0.31180   0.75483   0.01540  -0.54027
O          O       0.38860   0.67791   0.01737  -0.53908
O          O       0.50931   0.73109   0.04794  -0.19724
O          O       0.92227   0.01103   0.30891  -0.52887
O          O       0.92321   0.01040   0.38566  -0.54968
O          O       0.75484   0.01538   0.31181  -0.54021
O          O       0.67790   0.01740   0.38858  -0.53907
O          O       0.73109   0.04794   0.50931  -0.19722
O          O       0.30898   0.75765   0.92229  -0.52922
O          O       0.38577   0.68063   0.92322  -0.54995
O          O       0.31178   0.91797   0.75488  -0.54034
O          O       0.38857   0.91612   0.67796  -0.53956
O          O       0.50932   0.71165   0.73107  -0.19775
O          O       0.01114   0.92227   0.75760  -0.52886
O          O       0.01032   0.92324   0.68063  -0.54992
O          O       0.01540   0.75487   0.91794  -0.54023
O          O       0.01737   0.67795   0.91612  -0.53962
O          O       0.04797   0.73108   0.71159  -0.19827
O          O       0.75758   0.30900   0.01112  -0.52875
O          O       0.68060   0.38582   0.01036  -0.54971
O          O       0.91798   0.31177   0.01532  -0.54021
O          O       0.91609   0.38854   0.01737  -0.53957
O          O       0.71163   0.50933   0.04795  -0.19797
O          O       0.75765   0.92228   0.30898  -0.52914
O          O       0.68064   0.92321   0.38577  -0.55007
O          O       0.91798   0.75486   0.31178  -0.54042
O          O       0.91613   0.67795   0.38858  -0.53925
O          O       0.71165   0.73108   0.50932  -0.19780
O          O       0.01104   0.30891   0.92227  -0.52877
O          O       0.01039   0.38567   0.92320  -0.54958
O          O       0.01539   0.31180   0.75483  -0.53994
O          O       0.01738   0.38859   0.67791  -0.53929
O          O       0.04794   0.50930   0.73110  -0.19698
O          O       0.30899   0.01114   0.75758  -0.52861
O          O       0.38583   0.01034   0.68061  -0.54994
O          O       0.31177   0.01534   0.91797  -0.54003
O          O       0.38855   0.01735   0.91609  -0.53978
O          O       0.50932   0.04794   0.71163  -0.19786
O          O       0.92227   0.75759   0.01115  -0.52882
O          O       0.92325   0.68063   0.01030  -0.54938
O          O       0.75486   0.91794   0.01541  -0.54004
O          O       0.67795   0.91611   0.01736  -0.53988
O          O       0.73109   0.71159   0.04797  -0.19790

