data_crystal

_audit_creation_method 'AiiDA-DDEC plugin'

_cell_length_a        18.57611
_cell_length_b        18.48690
_cell_length_c        20.15435

_cell_angle_alpha     109.25034
_cell_angle_beta     109.43689
_cell_angle_gamma     106.36859

_symmetry_space_group_name_Hall 'P 1'
_symmetry_space_group_name_H-M  'P 1'

loop_
_symmetry_equiv_pos_as_xyz
 'x,y,z'

loop_
_atom_site_label
_atom_site_type_symbol
_atom_site_fract_x
_atom_site_fract_y
_atom_site_fract_z
_atom_site_charge
Zn         Zn      0.11646   0.11658   0.23251   0.78755
Zn         Zn      0.36737   0.86898   0.73410   0.78928
Zn         Zn      0.49830   0.49821   0.99659   0.76457
Zn         Zn      0.74877   0.25058   0.49817   0.76333
Zn         Zn      0.05797   0.06512   0.62611   0.78006
Zn         Zn      0.81175   0.31904   0.12460   0.77954
Zn         Zn      0.56742   0.56055   0.62626   0.78039
Zn         Zn      0.31483   0.80683   0.12450   0.77826
H          H       0.15009   0.21715   0.15338   0.27292
H          H       0.35161   0.96839   0.94948   0.12326
H          H       0.32625   0.04764   0.05932   0.10724
H          H       0.07227   0.97556   0.88820   0.11399
H          H       0.09546   0.89088   0.77987   0.11149
H          H       0.22605   0.00419   0.19020   0.14214
H          H       0.22277   0.95450   0.09669   0.14259
H          H       0.12744   0.93009   0.10462   0.14257
H          H       0.10037   0.17625   0.97301   0.13735
H          H       0.19085   0.16656   0.96780   0.14876
H          H       0.20376   0.25646   0.04760   0.14974
H          H       0.00334   0.93680   0.15339   0.27229
H          H       0.59829   0.98221   0.94868   0.12278
H          H       0.73284   0.01134   0.05865   0.10769
H          H       0.81550   0.91189   0.88751   0.11357
H          H       0.68477   0.88973   0.77964   0.11006
H          H       0.96513   0.18626   0.19063   0.14197
H          H       0.87506   0.14341   0.09710   0.14297
H          H       0.97838   0.17504   0.10527   0.14137
H          H       0.87323   0.79748   0.97321   0.13684
H          H       0.77686   0.80075   0.96747   0.14951
H          H       0.84443   0.79117   0.04748   0.14999
H          H       0.46748   0.90287   0.65541   0.27223
H          H       0.21805   0.10186   0.44758   0.12285
H          H       0.29754   0.07699   0.55814   0.10733
H          H       0.22516   0.82144   0.38825   0.11371
H          H       0.14076   0.84444   0.27923   0.11104
H          H       0.25485   0.97738   0.69043   0.14135
H          H       0.20497   0.97443   0.59704   0.14368
H          H       0.18083   0.87850   0.60463   0.14243
H          H       0.42498   0.84969   0.47435   0.13745
H          H       0.41657   0.94058   0.46781   0.14862
H          H       0.50583   0.95338   0.54823   0.14969
H          H       0.18860   0.75488   0.65459   0.27062
H          H       0.23120   0.34748   0.44811   0.12274
H          H       0.26178   0.48262   0.55866   0.10760
H          H       0.16397   0.56830   0.38930   0.11341
H          H       0.13981   0.43660   0.28022   0.11162
H          H       0.43689   0.71603   0.69133   0.14191
H          H       0.39354   0.62550   0.59792   0.14295
H          H       0.42549   0.72921   0.60581   0.14275
H          H       0.04912   0.62456   0.47419   0.13798
H          H       0.05266   0.52793   0.46858   0.14956
H          H       0.04360   0.59563   0.54871   0.14964
H          H       0.60204   0.64586   0.99060   0.26987
H          H       0.76200   0.02827   0.36841   0.10679
H          H       0.74128   0.89821   0.26008   0.11145
H          H       0.47261   0.79126   0.18385   0.10978
H          H       0.49491   0.91990   0.29562   0.10547
H          H       0.45701   0.66323   0.17313   0.15359
H          H       0.54655   0.64913   0.22255   0.14588
H          H       0.46398   0.56716   0.12705   0.13985
H          H       0.73957   0.85407   0.11466   0.14209
H          H       0.65435   0.88299   0.09967   0.14478
H          H       0.65411   0.80800   0.01735   0.15003
H          H       0.38761   0.34522   0.99069   0.26859
H          H       0.60525   0.34225   0.36786   0.10820
H          H       0.51834   0.36309   0.25827   0.11229
H          H       0.71167   0.39140   0.18358   0.10952
H          H       0.80027   0.37486   0.29617   0.10635
H          H       0.71620   0.50923   0.17306   0.15365
H          H       0.67635   0.57291   0.22254   0.14679
H          H       0.66393   0.56003   0.12744   0.14080
H          H       0.37485   0.26086   0.11398   0.14193
H          H       0.44477   0.21646   0.09905   0.14384
H          H       0.36261   0.20907   0.01662   0.15012
H          H       0.89533   0.35357   0.49140   0.27069
H          H       0.27694   0.51229   0.86751   0.10774
H          H       0.14671   0.49092   0.75873   0.11119
H          H       0.04082   0.22164   0.68394   0.10928
H          H       0.16906   0.24440   0.79628   0.10535
H          H       0.91368   0.20717   0.67391   0.15373
H          H       0.89959   0.29673   0.72337   0.14721
H          H       0.81773   0.21401   0.62785   0.14136
H          H       0.10332   0.48952   0.61388   0.14184
H          H       0.13129   0.40342   0.59893   0.14444
H          H       0.05639   0.40342   0.51664   0.14974
H          H       0.59524   0.13885   0.49075   0.26962
H          H       0.59078   0.35464   0.86764   0.10680
H          H       0.61171   0.26731   0.75861   0.11205
H          H       0.64245   0.46250   0.68479   0.10967
H          H       0.62577   0.55134   0.79698   0.10619
H          H       0.75931   0.46788   0.67460   0.15370
H          H       0.82281   0.42776   0.72421   0.14709
H          H       0.80964   0.41527   0.62896   0.14036
H          H       0.51103   0.12446   0.61372   0.14162
H          H       0.46721   0.19501   0.59890   0.14430
H          H       0.45980   0.11287   0.51649   0.15020
H          H       0.99304   0.92131   0.65499   0.26654
H          H       0.20003   0.17220   0.61769   0.27027
H          H       0.83546   0.52183   0.30098   0.10713
H          H       0.60079   0.33551   0.98243   0.11609
H          H       0.86076   0.65208   0.41259   0.11449
H          H       0.46953   0.31753   0.87820   0.10884
H          H       0.10260   0.78665   0.43083   0.10445
H          H       0.34866   0.05336   0.82186   0.10090
H          H       0.07676   0.65547   0.31864   0.11269
H          H       0.47885   0.07333   0.92771   0.11673
H          H       0.98330   0.87729   0.38486   0.15532
H          H       0.09389   0.91723   0.44424   0.13127
H          H       0.04323   0.98388   0.46405   0.14463
H          H       0.16887   0.01629   0.76641   0.13850
H          H       0.16005   0.10922   0.81636   0.14660
H          H       0.25567   0.10005   0.85805   0.14222
H          H       0.91609   0.74514   0.60782   0.15378
H          H       0.02424   0.76271   0.64455   0.15599
H          H       0.94766   0.68264   0.54570   0.14292
H          H       0.41136   0.31900   0.74662   0.15159
H          H       0.35625   0.24192   0.64468   0.15354
H          H       0.43587   0.23234   0.71603   0.14444
H          H       0.98326   0.41209   0.15384   0.26689
H          H       0.69652   0.16785   0.11599   0.26894
H          H       0.02989   0.21686   0.80188   0.10690
H          H       0.89711   0.13326   0.48251   0.11615
H          H       0.01006   0.30262   0.91237   0.11416
H          H       0.81131   0.16033   0.37796   0.10947
H          H       0.89328   0.07665   0.92860   0.10417
H          H       0.01798   0.22317   0.32158   0.10078
H          H       0.91330   0.99096   0.81721   0.11356
H          H       0.10364   0.19928   0.42794   0.11597
H          H       0.75733   0.15110   0.88336   0.15454
H          H       0.77737   0.09917   0.94216   0.13078
H          H       0.73043   0.16940   0.96244   0.14424
H          H       0.00057   0.34904   0.26624   0.13901
H          H       0.95798   0.40781   0.31624   0.14657
H          H       0.00836   0.35307   0.35751   0.14246
H          H       0.11188   0.44234   0.10797   0.15389
H          H       0.13095   0.37055   0.14475   0.15641
H          H       0.11290   0.34858   0.04623   0.14251
H          H       0.67824   0.08707   0.24582   0.15187
H          H       0.65309   0.03912   0.14388   0.15381
H          H       0.73355   0.03077   0.21574   0.14386
H          H       0.66024   0.73317   0.65570   0.26590
H          H       0.41702   0.44446   0.61767   0.27001
H          H       0.46695   0.77888   0.30111   0.10756
H          H       0.38272   0.64620   0.98213   0.11605
H          H       0.55261   0.76031   0.41286   0.11471
H          H       0.40917   0.56028   0.87729   0.10965
H          H       0.32720   0.64298   0.42841   0.10393
H          H       0.47206   0.76835   0.82141   0.10129
H          H       0.24185   0.66229   0.31615   0.11292
H          H       0.44811   0.85406   0.92795   0.11715
H          H       0.40066   0.50683   0.38409   0.15504
H          H       0.34912   0.52633   0.44296   0.13052
H          H       0.41927   0.47920   0.46300   0.14453
H          H       0.59774   0.75021   0.76676   0.13760
H          H       0.65586   0.70689   0.81683   0.14621
H          H       0.60174   0.75791   0.85794   0.14186
H          H       0.69147   0.86126   0.60810   0.15427
H          H       0.62080   0.88160   0.64531   0.15638
H          H       0.59813   0.86278   0.54650   0.14288
H          H       0.33497   0.42744   0.74640   0.15104
H          H       0.28756   0.40224   0.64443   0.15332
H          H       0.27974   0.48345   0.71589   0.14366
H          H       0.17253   0.74268   0.15358   0.26650
H          H       0.42131   0.94971   0.11645   0.27014
H          H       0.77197   0.58599   0.80276   0.10711
H          H       0.58457   0.35050   0.48336   0.11585
H          H       0.90324   0.61007   0.91215   0.11420
H          H       0.56683   0.22007   0.37804   0.10979
H          H       0.03598   0.85308   0.92927   0.10442
H          H       0.30340   0.09745   0.32028   0.10110
H          H       0.90375   0.82774   0.81892   0.11360
H          H       0.32331   0.22681   0.42744   0.11638
H          H       0.12665   0.73230   0.88263   0.15452
H          H       0.16551   0.84320   0.94154   0.13121
H          H       0.23294   0.79345   0.96169   0.14471
H          H       0.26628   0.91716   0.26474   0.13761
H          H       0.35890   0.90822   0.31454   0.14650
H          H       0.34975   0.00402   0.35652   0.14235
H          H       0.99787   0.66606   0.10780   0.15413
H          H       0.01581   0.77467   0.14427   0.15587
H          H       0.93482   0.69769   0.04592   0.14286
H          H       0.56885   0.16152   0.24668   0.15172
H          H       0.49201   0.10723   0.14465   0.15358
H          H       0.48277   0.18675   0.21645   0.14389
C          C       0.22580   0.92572   0.85726  -0.04836
C          C       0.29060   0.97015   0.93653  -0.08510
C          C       0.18101   0.05241   0.10970   0.22085
C          C       0.27627   0.01462   0.99790  -0.14549
C          C       0.18360   0.06801   0.04610  -0.18545
C          C       0.19802   0.01845   0.98163   0.10363
C          C       0.16810   0.13999   0.05591   0.21533
C          C       0.13330   0.97350   0.90206  -0.14488
C          C       0.14640   0.92625   0.84099  -0.08997
C          C       0.24152   0.88089   0.79011   0.56797
C          C       0.18979   0.98166   0.12622  -0.43983
C          C       0.16555   0.18746   0.00876  -0.44008
C          C       0.63196   0.93267   0.85689  -0.05019
C          C       0.64639   0.96732   0.93604  -0.08510
C          C       0.92869   0.05754   0.10960   0.22169
C          C       0.72186   0.98364   0.99739  -0.14644
C          C       0.86249   0.97817   0.04574  -0.18511
C          C       0.78371   0.96326   0.98114   0.10436
C          C       0.88756   0.91600   0.05585   0.21422
C          C       0.76887   0.92872   0.90164  -0.14484
C          C       0.69489   0.91545   0.84066  -0.08754
C          C       0.54925   0.91128   0.78997   0.57023
C          C       0.93728   0.14513   0.12654  -0.43980
C          C       0.84329   0.82127   0.00864  -0.44059
C          C       0.17565   0.97535   0.35607  -0.04994
C          C       0.21987   0.04066   0.43516  -0.08499
C          C       0.30271   0.93275   0.61012   0.22122
C          C       0.26431   0.02655   0.49685  -0.14648
C          C       0.31779   0.93429   0.54609  -0.18532
C          C       0.26805   0.94799   0.48103   0.10498
C          C       0.38998   0.91950   0.55674   0.21536
C          C       0.22311   0.88269   0.40167  -0.14439
C          C       0.17606   0.89566   0.34026  -0.08904
C          C       0.13085   0.99078   0.28860   0.57076
C          C       0.23218   0.94119   0.62643  -0.44163
C          C       0.43698   0.91562   0.50943  -0.43890
C          C       0.18163   0.38234   0.35661  -0.04770
C          C       0.21656   0.39605   0.43563  -0.08572
C          C       0.30864   0.68010   0.61043   0.22310
C          C       0.23376   0.47182   0.49745  -0.14652
C          C       0.22944   0.61366   0.54674  -0.18844
C          C       0.21415   0.53463   0.48193   0.10574
C          C       0.16767   0.63905   0.55673   0.21693
C          C       0.17969   0.52061   0.40267  -0.14367
C          C       0.16543   0.44635   0.34116  -0.09070
C          C       0.15888   0.29942   0.28883   0.56815
C          C       0.39568   0.68816   0.62726  -0.44129
C          C       0.07323   0.59459   0.50970  -0.44309
C          C       0.62946   0.98308   0.33786  -0.05543
C          C       0.69882   0.97626   0.32784  -0.09482
C          C       0.54559   0.67414   0.12555   0.21849
C          C       0.68689   0.90350   0.26658  -0.15179
C          C       0.59170   0.76062   0.14706  -0.18241
C          C       0.60508   0.83616   0.21329   0.11310
C          C       0.62228   0.75923   0.09171   0.21666
C          C       0.53617   0.84257   0.22501  -0.15024
C          C       0.54829   0.91475   0.28697  -0.09397
C          C       0.64043   0.06306   0.39990   0.57451
C          C       0.50078   0.63651   0.16395  -0.43176
C          C       0.67041   0.82965   0.08032  -0.43830
C          C       0.70774   0.35578   0.33782  -0.05450
C          C       0.62831   0.35297   0.32741  -0.09615
C          C       0.58001   0.45115   0.12494   0.21655
C          C       0.57931   0.36388   0.26558  -0.15306
C          C       0.55544   0.38591   0.14597  -0.18281
C          C       0.60822   0.37696   0.21237   0.11582
C          C       0.46922   0.33218   0.09091   0.21555
C          C       0.68879   0.38177   0.22448  -0.15129
C          C       0.73825   0.37199   0.28686  -0.09370
C          C       0.75898   0.33869   0.40025   0.57263
C          C       0.66352   0.52716   0.16385  -0.43336
C          C       0.40949   0.25049   0.07961  -0.43780
C          C       0.23197   0.37924   0.83763  -0.05534
C          C       0.22512   0.44884   0.82723  -0.09522
C          C       0.92396   0.29607   0.62614   0.21597
C          C       0.15239   0.43665   0.76592  -0.15124
C          C       0.00999   0.34135   0.64689  -0.18047
C          C       0.08534   0.35452   0.71298   0.11321
C          C       0.00847   0.37244   0.59170   0.21556
C          C       0.09186   0.28545   0.72500  -0.15079
C          C       0.16388   0.29782   0.78713  -0.09394
C          C       0.31160   0.39012   0.89968   0.57278
C          C       0.88683   0.25101   0.66470  -0.43467
C          C       0.07843   0.42001   0.57973  -0.43642
C          C       0.60538   0.45781   0.83806  -0.05657
C          C       0.60211   0.37788   0.82745  -0.09383
C          C       0.70145   0.33115   0.62638   0.21791
C          C       0.61317   0.32879   0.76592  -0.15384
C          C       0.63638   0.30595   0.64706  -0.18342
C          C       0.62712   0.35836   0.71326   0.11557
C          C       0.58270   0.21967   0.59142   0.21424
C          C       0.63246   0.43946   0.72557  -0.15052
C          C       0.62248   0.48894   0.78765  -0.09373
C          C       0.58740   0.50876   0.89977   0.57325
C          C       0.77716   0.41498   0.66550  -0.43380
C          C       0.50108   0.15961   0.57955  -0.43733
C          C       0.95462   0.58026   0.30280  -0.05411
C          C       0.54837   0.20559   0.96135  -0.05913
C          C       0.89395   0.57979   0.32972  -0.09222
C          C       0.54512   0.27397   0.94663  -0.08941
C          C       0.01857   0.88754   0.50132   0.22175
C          C       0.23755   0.12597   0.75921   0.21821
C          C       0.90846   0.65265   0.39259  -0.15076
C          C       0.47138   0.26336   0.88771  -0.14959
C          C       0.99683   0.80487   0.49518  -0.19332
C          C       0.32252   0.17145   0.77726  -0.16962
C          C       0.98362   0.72835   0.42992   0.11105
C          C       0.39932   0.18389   0.84131   0.11149
C          C       0.98602   0.81036   0.56220   0.22103
C          C       0.31710   0.19913   0.71915   0.21526
C          C       0.04404   0.72867   0.40232  -0.14468
C          C       0.40287   0.11585   0.85719  -0.15185
C          C       0.02994   0.65542   0.33980  -0.09766
C          C       0.47618   0.12651   0.91661  -0.09276
C          C       0.93923   0.50074   0.23650   0.56848
C          C       0.62790   0.21536   0.02237   0.57167
C          C       0.03570   0.91830   0.44592  -0.44140
C          C       0.20401   0.08593   0.80230  -0.44731
C          C       0.96717   0.74664   0.59156  -0.44422
C          C       0.38332   0.25046   0.70568  -0.44151
C          C       0.97338   0.09858   0.80288  -0.05479
C          C       0.00548   0.16381   0.46155  -0.05858
C          C       0.00039   0.18655   0.83004  -0.09157
C          C       0.92274   0.15268   0.44660  -0.09034
C          C       0.86361   0.23230  -0.00005   0.22223
C          C       0.88390   0.27250   0.25842   0.21852
C          C       0.98969   0.23459   0.89233  -0.15027
C          C       0.87459   0.16746   0.38746  -0.14820
C          C       0.93994   0.24799   0.99419  -0.19158
C          C       0.85615   0.20554   0.27664  -0.16773
C          C       0.95110   0.19599   0.92898   0.11096
C          C       0.90745   0.19271   0.34093   0.10977
C          C       0.00147   0.32606   0.06150   0.21987
C          C       0.77052   0.15281   0.21828   0.21534
C          C       0.92321   0.10744   0.90088  -0.14463
C          C       0.99097   0.20459   0.35696  -0.15233
C          C       0.93456   0.05936   0.83886  -0.09929
C          C       0.03961   0.19089   0.41668  -0.09121
C          C       0.98735   0.04797   0.73725   0.56851
C          C       0.05684   0.14581   0.52314   0.57154
C          C       0.77770   0.15937   0.94426  -0.44024
C          C       0.96696   0.34943   0.30190  -0.44926
C          C       0.09440   0.37470   0.09163  -0.44387
C          C       0.70546   0.07323   0.20496  -0.44208
C          C       0.34909   0.72232   0.30191  -0.05500
C          C       0.41313   0.75517   0.96110  -0.05860
C          C       0.43679   0.74957   0.32947  -0.09162
C          C       0.40198   0.67210   0.94628  -0.09028
C          C       0.48168   0.61297   0.50083   0.22167
C          C       0.52098   0.63311   0.75877   0.21951
C          C       0.48475   0.73947   0.39242  -0.15143
C          C       0.41646   0.62395   0.88710  -0.14972
C          C       0.49775   0.68958   0.49477  -0.19069
C          C       0.45402   0.60564   0.77660  -0.17046
C          C       0.44628   0.70086   0.42917   0.11045
C          C       0.44152   0.65720   0.84071   0.11166
C          C       0.57527   0.75125   0.56248   0.22016
C          C       0.40138   0.51964   0.71867   0.21527
C          C       0.35799   0.67273   0.40060  -0.14543
C          C       0.45357   0.74110   0.85673  -0.15097
C          C       0.31003   0.68365   0.33805  -0.09831
C          C       0.43996   0.78972   0.91636  -0.09351
C          C       0.29886   0.73664   0.23620   0.56927
C          C       0.39496   0.80637   0.02231   0.57225
C          C       0.40905   0.52679   0.44497  -0.44050
C          C       0.59791   0.71630   0.80236  -0.44623
C          C       0.62425   0.84432   0.59210  -0.44490
C          C       0.32180   0.45485   0.70541  -0.44074
C          C       0.82946   0.70542   0.80425  -0.05488
C          C       0.45516   0.29706   0.46196  -0.05726
C          C       0.82988   0.64436   0.83095  -0.09216
C          C       0.52326   0.29465   0.44704  -0.09041
C          C       0.13748   0.76786  -0.00067   0.22291
C          C       0.37565   0.98678   0.25792   0.21916
C          C       0.90333   0.65835   0.89258  -0.14999
C          C       0.51275   0.22140   0.38741  -0.14885
C          C       0.05543   0.74646   0.99374  -0.19240
C          C       0.42132   0.07222   0.27638  -0.16964
C          C       0.97873   0.73363   0.92907   0.11115
C          C       0.43359   0.14899   0.34049   0.10998
C          C       0.06147   0.73546   0.06088   0.22173
C          C       0.44916   0.06709   0.21859   0.21535
C          C       0.97823   0.79447   0.90158  -0.14451
C          C       0.36567   0.15188   0.35618  -0.15039
C          C       0.90436   0.78072   0.84012  -0.09946
C          C       0.37630   0.22468   0.41635  -0.09463
C          C       0.74931   0.68982   0.73874   0.56862
C          C       0.46496   0.37601   0.52408   0.57332
C          C       0.16739   0.78510   0.94358  -0.44113
C          C       0.33568   0.95251   0.30068  -0.44739
C          C      -0.00106   0.71714   0.09120  -0.44525
C          C       0.50062   0.13387   0.20564  -0.44166
N          N       0.15694   0.16362   0.12148  -0.14527
N          N       0.16486   0.11136   0.15514  -0.25625
N          N       0.96406   0.95815   0.12186  -0.14430
N          N       0.99002   0.04411   0.15549  -0.25752
N          N       0.41427   0.90995   0.62328  -0.14571
N          N       0.36219   0.91797   0.65667  -0.25844
N          N       0.20985   0.71597   0.62253  -0.14416
N          N       0.29551   0.74189   0.65616  -0.25836
N          N       0.59601   0.67654   0.04233  -0.14418
N          N       0.54950   0.62425   0.06189  -0.25336
N          N       0.44586   0.36591   0.04209  -0.14425
N          N       0.51207   0.43786   0.06187  -0.25002
N          N       0.92609   0.34733   0.54315  -0.14725
N          N       0.87416   0.30103   0.56307  -0.24802
N          N       0.61632   0.19682   0.54267  -0.14392
N          N       0.68813   0.26348   0.56294  -0.25062
N          N       0.00127   0.89182   0.60427  -0.14866
N          N       0.23362   0.16916   0.67037  -0.14743
N          N       0.02016   0.93915   0.56773  -0.25030
N          N       0.18447   0.12478   0.69359  -0.25628
N          N       0.96218   0.35296   0.10323  -0.14747
N          N       0.75208   0.18743   0.16922  -0.14982
N          N       0.87845   0.29737   0.06631  -0.25243
N          N       0.81984   0.25993   0.19252  -0.25760
N          N       0.60140   0.71189   0.60479  -0.14705
N          N       0.43614   0.50063   0.67013  -0.14889
N          N       0.54596   0.62782   0.56775  -0.25255
N          N       0.50853   0.56841   0.69342  -0.25624
N          N       0.14261   0.75030   0.10246  -0.14877
N          N       0.41909   0.98339   0.16953  -0.14910
N          N       0.18927   0.76910   0.06556  -0.25244
N          N       0.37440   0.93381   0.19230  -0.25463
O          O       0.17894   0.82651   0.72286  -0.55065
O          O       0.32095   0.90464   0.80731  -0.54111
O          O       0.54476   0.89873   0.72294  -0.55092
O          O       0.48711   0.90524   0.80713  -0.54279
O          O       0.07630   0.92782   0.22160  -0.55259
O          O       0.15476   0.07043   0.30538  -0.54213
O          O       0.14660   0.29543   0.22197  -0.55174
O          O       0.15143   0.23628   0.30515  -0.54248
O          O       0.71200   0.12907   0.43018  -0.56524
O          O       0.58095   0.06164   0.41725  -0.52747
O          O       0.71756   0.30424   0.43104  -0.56309
O          O       0.83576   0.35673   0.41753  -0.52715
O          O       0.37761   0.46129   0.92865  -0.56264
O          O       0.30986   0.33106   0.91829  -0.52522
O          O       0.55252   0.46714   0.93021  -0.56369
O          O       0.60510   0.58573   0.91665  -0.52725
O          O       0.86155   0.44199   0.19627  -0.55694
O          O       0.62623   0.15414   0.03789  -0.54012
O          O       0.00096   0.49560   0.22525  -0.53645
O          O       0.69417   0.28715   0.05387  -0.55311
O          O       0.00679   0.08603   0.69776  -0.55771
O          O       0.13363   0.16412   0.53966  -0.54320
O          O       0.98077   0.97450   0.72604  -0.53501
O          O       0.01658   0.11034   0.55415  -0.55387
O          O       0.33677   0.75589   0.19670  -0.55627
O          O       0.41132   0.88294   0.03763  -0.54350
O          O       0.22590   0.73082   0.22508  -0.53632
O          O       0.36130   0.76610   0.05427  -0.55300
O          O       0.69028   0.61216   0.70003  -0.55787
O          O       0.40435   0.37371   0.54008  -0.54123
O          O       0.74428   0.75153   0.72672  -0.53528
O          O       0.53651   0.44271   0.55607  -0.55569

