data_crystal

_audit_creation_method 'AiiDA-DDEC plugin'

_cell_length_a         9.38877
_cell_length_b        31.30139
_cell_length_c        20.72124

_cell_angle_alpha     90.11709
_cell_angle_beta     90.41597
_cell_angle_gamma     89.82547

_symmetry_space_group_name_Hall 'P 1'
_symmetry_space_group_name_H-M  'P 1'

loop_
_symmetry_equiv_pos_as_xyz
 'x,y,z'

loop_
_atom_site_label
_atom_site_type_symbol
_atom_site_fract_x
_atom_site_fract_y
_atom_site_fract_z
_atom_site_charge
Zn         Zn      0.92524   0.47942   0.81962   0.02998
Zn         Zn      0.56761   0.97923   0.68652   0.02748
Zn         Zn      0.06086   0.47960   0.31331   0.02782
Zn         Zn      0.43915   0.97952   0.18374   0.02685
Zn         Zn      0.92536   0.51839   0.69002   0.02994
Zn         Zn      0.57493   0.01959   0.81642   0.02921
Zn         Zn      0.06124   0.52077   0.18363   0.02858
Zn         Zn      0.43260   0.02072   0.31339   0.02940
H          H       0.60032   0.83489   0.74405   0.09759
H          H       0.50995   0.69006   0.56191   0.12386
H          H       0.27774   0.82380   0.60143   0.11277
H          H       0.77678   0.69201   0.59010   0.10642
H          H       0.94848   0.66741   0.50940   0.10210
H          H       0.25668   0.58245   0.78545   0.12303
H          H       0.50255   0.76485   0.77340   0.12119
H          H       0.44057   0.76665   0.56759   0.11566
H          H       0.95006   0.52491   0.44669   0.09360
H          H       0.63702   0.56225   0.61626   0.10600
H          H       0.57883   0.68888   0.76719   0.12452
H          H       0.81970   0.53700   0.54125   0.12224
H          H       0.33045   0.91003   0.62731   0.10923
H          H       0.34107   0.63275   0.70383   0.10423
H          H       0.19206   0.51941   0.82009   0.07446
H          H       0.33860   0.58972   0.42322   0.10437
H          H       0.68674   0.53446   0.80897   0.10591
H          H       0.16133   0.63959   0.49874   0.11120
H          H       0.77085   0.58682   0.72908   0.11513
H          H       0.41531   0.46013   0.97203   0.10163
H          H       0.60554   0.51035   0.90380   0.12466
H          H       0.89601   0.33438   0.75531   0.09733
H          H       0.98800   0.19097   0.93868   0.12388
H          H       0.22118   0.32385   0.89687   0.11243
H          H       0.72015   0.19222   0.91035   0.10548
H          H       0.54964   0.16779   0.99131   0.10311
H          H       0.24068   0.08150   0.71464   0.12263
H          H       0.99571   0.26381   0.72609   0.12013
H          H       0.05725   0.26737   0.93184   0.11512
H          H       0.55394   0.02512   0.05429   0.09241
H          H       0.86801   0.06271   0.88643   0.10614
H          H       0.91991   0.18801   0.73336   0.12395
H          H       0.68693   0.03754   0.96201   0.12281
H          H       0.16555   0.40998   0.87123   0.10894
H          H       0.15784   0.13185   0.79705   0.10464
H          H       0.30445   0.01849   0.67931   0.07256
H          H       0.16422   0.08986   0.07889   0.10638
H          H       0.80985   0.03481   0.69151   0.10657
H          H       0.34026   0.14000   0.00404   0.11111
H          H       0.72740   0.08714   0.77233   0.11602
H          H       0.07945   0.95985   0.52735   0.10024
H          H       0.89027   0.01051   0.59622   0.12549
H          H       0.40088   0.83457   0.24389   0.09659
H          H       0.47741   0.69060   0.06022   0.12495
H          H       0.71673   0.82327   0.10018   0.11202
H          H       0.21304   0.69219   0.08953   0.10554
H          H       0.03675   0.66735   0.00998   0.10257
H          H       0.73621   0.58176   0.28746   0.12418
H          H       0.50184   0.76412   0.27249   0.12023
H          H       0.54804   0.76695   0.06629   0.11430
H          H       0.03894   0.52498   0.94674   0.09168
H          H       0.36103   0.56279   0.11370   0.10651
H          H       0.42406   0.68846   0.26601   0.12331
H          H       0.17496   0.53724   0.03945   0.12219
H          H       0.66412   0.90954   0.12628   0.10803
H          H       0.65381   0.63204   0.20439   0.10393
H          H       0.79773   0.51719   0.32021   0.07051
H          H       0.64434   0.58814   0.92710   0.10630
H          H       0.30506   0.53529   0.30750   0.10753
H          H       0.82417   0.63877   0.00095   0.11163
H          H       0.22271   0.58777   0.22651   0.11520
H          H       0.57634   0.46062   0.47327   0.10140
H          H       0.38760   0.51239   0.40504   0.12627
H          H       0.10147   0.33533   0.25733   0.09695
H          H       0.02243   0.19124   0.43978   0.12362
H          H       0.78564   0.32452   0.40092   0.11200
H          H       0.28723   0.19240   0.41010   0.10559
H          H       0.46243   0.16737   0.49002   0.10314
H          H       0.76451   0.08264   0.21134   0.12389
H          H      -0.00037   0.26511   0.22811   0.12067
H          H       0.95301   0.26784   0.43434   0.11487
H          H       0.45776   0.02525   0.55374   0.09388
H          H       0.13900   0.06323   0.38543   0.10636
H          H       0.07616   0.18914   0.23394   0.12339
H          H       0.32451   0.03746   0.45986   0.12239
H          H       0.83754   0.41071   0.37527   0.10860
H          H       0.84611   0.13320   0.29428   0.10526
H          H       0.70401   0.01718   0.18034   0.07217
H          H       0.85144   0.08789   0.57599   0.10514
H          H       0.19563   0.03517   0.19261   0.10757
H          H       0.67452   0.13830   0.50025   0.11139
H          H       0.27736   0.08815   0.27305   0.11492
H          H       0.92537   0.95960   0.02743   0.10022
H          H       0.11331   0.01207   0.09463   0.12651
H          H       0.60138   0.16480   0.75682   0.09753
H          H       0.52075   0.30860   0.94030   0.12463
H          H       0.28262   0.17568   0.89923   0.11169
H          H       0.78735   0.30690   0.90981   0.10643
H          H       0.96182   0.33120   0.99058   0.10238
H          H       0.25809   0.41762   0.71606   0.12287
H          H       0.49889   0.23525   0.72781   0.11994
H          H       0.45056   0.23224   0.93391   0.11624
H          H       0.95425   0.47273   0.05781   0.09275
H          H       0.63686   0.43630   0.88842   0.10607
H          H       0.57584   0.31101   0.73459   0.12312
H          H       0.82116   0.46137   0.96400   0.12300
H          H       0.33603   0.08947   0.87292   0.10827
H          H       0.34429   0.36714   0.79792   0.10337
H          H       0.19473   0.48255   0.68384   0.07280
H          H       0.34955   0.41006   0.07844   0.10631
H          H       0.68745   0.46488   0.69387   0.10609
H          H       0.17328   0.36011   0.00177   0.11181
H          H       0.77322   0.41248   0.77409   0.11469
H          H       0.41147   0.53890   0.52922   0.10016
H          H       0.60271   0.48754   0.59684   0.12540
H          H       0.89601   0.66495   0.74630   0.09797
H          H       0.97853   0.80781   0.56156   0.12483
H          H       0.21280   0.67449   0.60291   0.11144
H          H       0.71341   0.80711   0.59021   0.10665
H          H       0.54036   0.83165   0.50902   0.10288
H          H       0.24249   0.91625   0.78550   0.12280
H          H      -0.00341   0.73532   0.77440   0.11951
H          H       0.04762   0.73125   0.56841   0.11480
H          H       0.54645   0.97330   0.44329   0.09346
H          H       0.85921   0.93654   0.61475   0.10552
H          H       0.92043   0.81125   0.76707   0.12384
H          H       0.67556   0.96182   0.53912   0.12267
H          H       0.16030   0.58856   0.63001   0.10782
H          H       0.15485   0.86587   0.70359   0.10356
H          H       0.30729   0.98157   0.81688   0.07263
H          H       0.15300   0.91064   0.42011   0.10462
H          H       0.81458   0.96556   0.80768   0.10528
H          H       0.32811   0.86065   0.49741   0.11156
H          H       0.72722   0.91308   0.72775   0.11562
H          H       0.09305   0.03867   0.97230   0.10130
H          H       0.90066   0.98751   0.90510   0.12477
H          H       0.39662   0.16758   0.25813   0.09696
H          H       0.48333   0.30979   0.44377   0.12406
H          H       0.72553   0.17763   0.39790   0.11255
H          H       0.21973   0.30823   0.41729   0.10521
H          H       0.04613   0.33218   0.49765   0.10303
H          H       0.73770   0.42046   0.22450   0.12149
H          H       0.49631   0.23846   0.22968   0.12014
H          H       0.55604   0.23359   0.43543   0.11543
H          H       0.03596   0.47478   0.55881   0.09346
H          H       0.34948   0.43876   0.38920   0.10530
H          H       0.41720   0.31405   0.23843   0.12345
H          H       0.16535   0.46322   0.46400   0.12287
H          H       0.67334   0.09158   0.37018   0.10968
H          H       0.65314   0.37114   0.30719   0.10265
H          H       0.80011   0.48103   0.18382   0.07226
H          H       0.64961   0.40866   0.58164   0.10571
H          H       0.30442   0.46403   0.19346   0.10669
H          H       0.83057   0.35903   0.50740   0.11182
H          H       0.22112   0.41259   0.27484   0.11607
H          H       0.57669   0.53612   0.02844   0.10085
H          H       0.38672   0.48761   0.09941   0.12479
H          H       0.10807   0.66824   0.24201   0.09766
H          H       0.02201   0.81012   0.05672   0.12426
H          H       0.77646   0.67906   0.10356   0.11189
H          H       0.28606   0.80814   0.08336   0.10538
H          H       0.45999   0.83151   0.00307   0.10263
H          H       0.76446   0.92180   0.27385   0.12188
H          H       0.00878   0.73961   0.27103   0.12074
H          H       0.94817   0.73416   0.06530   0.11480
H          H       0.46974   0.97392   0.94184   0.09224
H          H       0.15511   0.93893   0.11068   0.10498
H          H       0.08894   0.81494   0.26199   0.12416
H          H       0.33927   0.96280   0.03574   0.12241
H          H       0.82869   0.59294   0.13066   0.11011
H          H       0.85170   0.87236   0.19134   0.10313
H          H       0.70106   0.98292   0.31429   0.07232
H          H       0.85840   0.90795   0.92116   0.10653
H          H       0.19684   0.96458   0.30779   0.10573
H          H       0.67633   0.85830   0.99403   0.11169
H          H       0.28291   0.91297   0.22670   0.11549
H          H       0.92034   0.03737   0.47140   0.10047
H          H       0.11162   0.98800   0.40170   0.12512
C          C       0.69574   0.62866   0.61060   0.17175
C          C       0.51816   0.84470   0.71022   0.07772
C          C       0.50900   0.70658   0.60812  -0.16953
C          C       0.46525   0.55402   0.80190   0.15277
C          C       0.55355   0.68451   0.66389   0.17326
C          C       0.46991   0.77099   0.67073   0.14798
C          C       0.35340   0.83930   0.63329  -0.13498
C          C       0.90037   0.60049   0.52103   0.14231
C          C       0.78327   0.65818   0.57868  -0.18371
C          C       0.88200   0.64417   0.53367  -0.16594
C          C       0.56048   0.61273   0.70966   0.15725
C          C       0.36895   0.58259   0.77294  -0.16235
C          C       0.50618   0.74858   0.72701  -0.16811
C          C       0.46946   0.74945   0.61134  -0.16898
C          C       0.03413   0.54855   0.45053   0.08174
C          C       0.70631   0.58536   0.59349  -0.16644
C          C       0.54871   0.70601   0.72355  -0.16441
C          C       0.80927   0.57113   0.55025  -0.14866
C          C       0.37909   0.88154   0.64794  -0.01077
C          C       0.41670   0.61132   0.72695  -0.15615
C          C       0.27610   0.50988   0.85326   0.06747
C          C       0.23110   0.58338   0.43922  -0.04192
C          C       0.61000   0.55586   0.78600  -0.15445
C          C       0.14438   0.60908   0.47569  -0.13249
C          C       0.65787   0.58549   0.74081  -0.16408
C          C       0.39607   0.47987   0.92998  -0.03147
C          C       0.49252   0.50444   0.89693  -0.12431
C          C       0.80489   0.12894   0.89092   0.17001
C          C       0.97848   0.34433   0.78886   0.07909
C          C       0.98907   0.20706   0.89222  -0.17026
C          C       0.03168   0.05369   0.69836   0.15212
C          C       0.94505   0.18452   0.83673   0.17440
C          C       0.02830   0.27081   0.82865   0.14456
C          C       0.14451   0.33922   0.86529  -0.13295
C          C       0.60191   0.10092   0.98090   0.14386
C          C       0.71562   0.15848   0.92234  -0.18209
C          C       0.61764   0.14454   0.96752  -0.16696
C          C       0.93817   0.11252   0.79140   0.15823
C          C       0.12861   0.08190   0.72746  -0.16218
C          C       0.99211   0.24796   0.77270  -0.16645
C          C       0.02851   0.24982   0.88835  -0.16730
C          C       0.46950   0.04881   0.05091   0.08372
C          C       0.79715   0.08579   0.90878  -0.16501
C          C       0.94981   0.20549   0.77676  -0.16412
C          C       0.69503   0.07161   0.95228  -0.15111
C          C       0.11737   0.38141   0.85074  -0.01110
C          C       0.08176   0.11069   0.77383  -0.15684
C          C       0.22003   0.00926   0.64617   0.06880
C          C       0.27185   0.08359   0.06280  -0.04743
C          C       0.88715   0.05588   0.71464  -0.15220
C          C       0.35800   0.10942   0.02667  -0.13208
C          C       0.84019   0.08555   0.76029  -0.16461
C          C       0.09927   0.97955   0.56947  -0.03088
C          C       0.00326   0.00434   0.60284  -0.12346
C          C       0.29804   0.62896   0.10905   0.17020
C          C       0.48139   0.84432   0.20983   0.07757
C          C       0.48211   0.70684   0.10662  -0.17364
C          C       0.52700   0.55412   0.30214   0.15357
C          C       0.44175   0.68454   0.16250   0.17582
C          C       0.52727   0.77071   0.16969   0.14468
C          C       0.64268   0.83881   0.13242  -0.13416
C          C       0.08933   0.60057   0.02071   0.14386
C          C       0.20733   0.65839   0.07788  -0.18263
C          C       0.10627   0.64426   0.03351  -0.16647
C          C       0.43391   0.61281   0.20863   0.15893
C          C       0.62419   0.58221   0.27373  -0.16298
C          C       0.49468   0.74812   0.22596  -0.16581
C          C       0.52257   0.74954   0.11004  -0.16514
C          C       0.95370   0.54831   0.95130   0.08439
C          C       0.28904   0.58574   0.09151  -0.16492
C          C       0.45115   0.70573   0.22234  -0.16602
C          C       0.18407   0.57135   0.04886  -0.14988
C          C       0.61721   0.88106   0.14720  -0.01150
C          C       0.57761   0.61090   0.22701  -0.15632
C          C       0.71445   0.50867   0.35377   0.06919
C          C       0.75363   0.58235   0.94190  -0.04385
C          C       0.38240   0.55638   0.28503  -0.15327
C          C       0.84146   0.60839   0.97756  -0.13286
C          C       0.33559   0.58604   0.23918  -0.16447
C          C       0.59550   0.48009   0.43109  -0.03127
C          C       0.49974   0.50547   0.39807  -0.12404
C          C       0.20183   0.12932   0.39044   0.17046
C          C       0.02094   0.34521   0.29144   0.07780
C          C       0.01809   0.20755   0.39351  -0.17055
C          C       0.97374   0.05446   0.19740   0.15152
C          C       0.05830   0.18521   0.33743   0.17264
C          C       0.97443   0.27164   0.33097   0.14456
C          C       0.85968   0.33996   0.36881  -0.12994
C          C       0.40979   0.10065   0.47912   0.14457
C          C       0.29265   0.15860   0.42171  -0.18304
C          C       0.39322   0.14435   0.46628  -0.16761
C          C       0.06605   0.11351   0.29067   0.15770
C          C       0.87639   0.08298   0.22529  -0.16172
C          C       0.00657   0.24901   0.27449  -0.16651
C          C       0.97844   0.25039   0.39045  -0.16608
C          C       0.54306   0.04843   0.54975   0.08143
C          C       0.21083   0.08610   0.40778  -0.16637
C          C       0.04929   0.20646   0.27775  -0.16444
C          C       0.31544   0.07158   0.45059  -0.14910
C          C       0.88499   0.38218   0.35432  -0.01423
C          C       0.92257   0.11186   0.27189  -0.15725
C          C       0.78709   0.00847   0.14665   0.06683
C          C       0.74275   0.08216   0.56038  -0.04302
C          C       0.11818   0.05659   0.21468  -0.15281
C          C       0.65636   0.10811   0.52377  -0.13173
C          C       0.16457   0.08649   0.26029  -0.16376
C          C       0.90612   0.97939   0.06942  -0.03010
C          C       0.00145   0.00511   0.10194  -0.12415
C          C       0.70081   0.37017   0.89185   0.17255
C          C       0.52030   0.15492   0.79051   0.07502
C          C       0.51647   0.29242   0.89383  -0.17187
C          C       0.46625   0.44572   0.70037   0.15327
C          C       0.55728   0.31478   0.83806   0.17424
C          C       0.47282   0.22852   0.83055   0.14656
C          C       0.35762   0.16023   0.86734  -0.13398
C          C       0.90784   0.39800   0.98143   0.14088
C          C       0.79206   0.34058   0.92240  -0.18421
C          C       0.89221   0.35443   0.96739  -0.16647
C          C       0.56337   0.38675   0.79274   0.15804
C          C       0.37052   0.41732   0.72902  -0.16018
C          C       0.50555   0.25122   0.77438  -0.16621
C          C       0.47650   0.24967   0.89023  -0.16878
C          C       0.04014   0.44962   0.05324   0.08206
C          C       0.70889   0.41324   0.91033  -0.16638
C          C       0.54846   0.29367   0.77816  -0.16359
C          C       0.81301   0.42735   0.95367  -0.14810
C          C       0.38358   0.11800   0.85248  -0.00826
C          C       0.41930   0.38848   0.77507  -0.15832
C          C       0.27699   0.49106   0.64975   0.06889
C          C       0.24071   0.41588   0.06296  -0.04553
C          C       0.61119   0.44366   0.71676  -0.15445
C          C       0.15470   0.39017   0.02586  -0.13448
C          C       0.66005   0.41394   0.76204  -0.16303
C          C       0.39366   0.51954   0.57163  -0.02963
C          C       0.49060   0.49437   0.60430  -0.12550
C          C       0.79791   0.87031   0.60975   0.17351
C          C       0.97665   0.65477   0.71244   0.07748
C          C       0.98180   0.79180   0.60808  -0.17284
C          C       0.03523   0.94537   0.80109   0.15273
C          C       0.94043   0.81451   0.66363   0.17494
C          C       0.02381   0.72806   0.67173   0.15103
C          C       0.13834   0.65936   0.63515  -0.13318
C          C       0.59214   0.89845   0.51956   0.14320
C          C       0.70808   0.84085   0.57826  -0.18595
C          C       0.60867   0.85483   0.53296  -0.16633
C          C       0.93633   0.88656   0.70881   0.15710
C          C       0.13007   0.91642   0.77249  -0.16248
C          C       0.99058   0.75108   0.72773  -0.16676
C          C       0.02122   0.74895   0.61195  -0.16850
C          C       0.46089   0.95021   0.44733   0.08135
C          C       0.78852   0.91349   0.59213  -0.16681
C          C       0.94808   0.79362   0.72364  -0.16522
C          C       0.68500   0.92773   0.54858  -0.14982
C          C       0.11275   0.61726   0.65038  -0.00971
C          C       0.08052   0.88765   0.72644  -0.15653
C          C       0.22558   0.99036   0.85122   0.06792
C          C       0.26130   0.91646   0.43624  -0.04149
C          C       0.89015   0.94391   0.78481  -0.15191
C          C       0.34680   0.89073   0.47363  -0.13423
C          C       0.84049   0.91420   0.73966  -0.16319
C          C       0.11012   0.01922   0.92976  -0.03506
C          C       0.01263   0.99420   0.89734  -0.11844
C          C       0.29639   0.37199   0.39606   0.17417
C          C       0.48050   0.15748   0.29089   0.08060
C          C       0.48535   0.29402   0.39698  -0.17156
C          C       0.52732   0.44656   0.20382   0.15338
C          C       0.44067   0.31684   0.34191   0.17582
C          C       0.52811   0.23079   0.33212   0.14712
C          C       0.64870   0.16233   0.36638  -0.13275
C          C       0.08976   0.39930   0.48524   0.14340
C          C       0.21102   0.34206   0.42836  -0.18452
C          C       0.11117   0.35569   0.47314  -0.16852
C          C       0.43249   0.38884   0.29757   0.15560
C          C       0.62474   0.41968   0.23559  -0.16194
C          C       0.49148   0.25397   0.27662  -0.16665
C          C       0.52688   0.25137   0.39227  -0.16729
C          C       0.95292   0.45081   0.55501   0.08196
C          C       0.28227   0.41532   0.41248  -0.16525
C          C       0.44720   0.29630   0.28151  -0.16372
C          C       0.17844   0.42911   0.45555  -0.14887
C          C       0.62330   0.12021   0.35073  -0.01358
C          C       0.57704   0.39149   0.28229  -0.15306
C          C       0.71594   0.48959   0.15011   0.06799
C          C       0.75716   0.41529   0.56595  -0.04316
C          C       0.38200   0.44389   0.21836  -0.15280
C          C       0.84564   0.38976   0.53008  -0.13465
C          C       0.33448   0.41473   0.26436  -0.16594
C          C       0.59605   0.51746   0.07159  -0.03230
C          C       0.49967   0.49371   0.10600  -0.12146
C          C       0.20898   0.87209   0.10424   0.17495
C          C       0.02345   0.65835   0.20953   0.07914
C          C       0.01986   0.79453   0.10355  -0.17215
C          C       0.97423   0.94749   0.29599   0.15379
C          C       0.06489   0.81741   0.15855   0.17694
C          C       0.97625   0.73171   0.16862   0.14516
C          C       0.85377   0.66361   0.13474  -0.13315
C          C       0.41575   0.89872   0.01508   0.14082
C          C       0.29458   0.84190   0.07209  -0.18587
C          C       0.39456   0.85520   0.02736  -0.16731
C          C       0.07207   0.88962   0.20249   0.15760
C          C       0.87775   0.92083   0.26340  -0.16188
C          C       0.01355   0.75494   0.22405  -0.16561
C          C       0.97770   0.75203   0.10840  -0.16595
C          C       0.55318   0.94995   0.94597   0.08268
C          C       0.22264   0.91532   0.08755  -0.16570
C          C       0.05841   0.79712   0.21900  -0.16438
C          C       0.32651   0.92875   0.04444  -0.14772
C          C       0.87916   0.62144   0.15011  -0.01180
C          C       0.92702   0.89260   0.21679  -0.15392
C          C       0.78427   0.99122   0.34860   0.06946
C          C       0.75018   0.91452   0.93614  -0.04524
C          C       0.12000   0.94457   0.28229  -0.15512
C          C       0.66114   0.88897   0.97133  -0.13347
C          C       0.16915   0.91535   0.23640  -0.16386
C          C       0.90208   0.01874   0.42806  -0.03086
C          C      -0.00097   0.99449   0.39436  -0.12303
N          N       0.60328   0.64194   0.66057  -0.14140
N          N       0.48137   0.88447   0.69614  -0.30300
N          N       0.01735   0.58679   0.48284   0.02503
N          N       0.16207   0.54569   0.42381  -0.32681
N          N       0.44234   0.81555   0.67361   0.00122
N          N       0.41472   0.52394   0.84759   0.01935
N          N       0.26151   0.48328   0.90244  -0.32511
N          N       0.89625   0.14199   0.84060  -0.14208
N          N       0.01432   0.38416   0.80285  -0.30587
N          N       0.48550   0.08717   0.01916   0.02483
N          N       0.34173   0.04586   0.07768  -0.32115
N          N       0.05570   0.31531   0.82522   0.00034
N          N       0.08156   0.02366   0.65217   0.01714
N          N       0.23409   0.98264   0.59680  -0.32484
N          N       0.39202   0.64209   0.15906  -0.14222
N          N       0.51726   0.88404   0.19575  -0.30314
N          N       0.97043   0.58659   0.98348   0.02380
N          N       0.82399   0.54499   0.92575  -0.32306
N          N       0.55567   0.81515   0.17288   0.00279
N          N       0.57690   0.52401   0.34835   0.01722
N          N       0.72899   0.48213   0.40316  -0.32428
N          N       0.10768   0.14265   0.34055  -0.14008
N          N       0.98495   0.38501   0.30579  -0.30047
N          N       0.52765   0.08652   0.51703   0.02452
N          N       0.67177   0.04504   0.57636  -0.32523
N          N       0.94668   0.31617   0.32818  -0.00022
N          N       0.92422   0.02399   0.15158   0.01795
N          N       0.77283   0.98153   0.09761  -0.32392
N          N       0.60715   0.35722   0.84163  -0.14401
N          N       0.48456   0.11513   0.80435  -0.30481
N          N       0.02542   0.41176   0.01975   0.02896
N          N       0.16892   0.45288   0.07979  -0.32267
N          N       0.44505   0.18402   0.82722   0.00013
N          N       0.41486   0.47586   0.65453   0.01597
N          N       0.26088   0.51744   0.60027  -0.32383
N          N       0.89161   0.85715   0.65985  -0.14237
N          N       0.01242   0.61485   0.69881  -0.30665
N          N       0.47546   0.91232   0.48065   0.02678
N          N       0.33277   0.95348   0.42009  -0.32282
N          N       0.05130   0.68354   0.67530  -0.00259
N          N       0.08757   0.97546   0.84684   0.01629
N          N       0.24245   0.01682   0.90069  -0.32386
N          N       0.38997   0.35926   0.34632  -0.14242
N          N       0.51889   0.11763   0.30345  -0.30538
N          N       0.97180   0.41252   0.52316   0.02361
N          N       0.82443   0.45328   0.58125  -0.32215
N          N       0.55727   0.18636   0.32763  -0.00344
N          N       0.57743   0.47558   0.15654   0.01650
N          N       0.73052   0.51489   0.09941  -0.32608
N          N       0.11575   0.85970   0.15409  -0.14376
N          N       0.98443   0.61860   0.19696  -0.30615
N          N       0.53416   0.91167   0.97748   0.02495
N          N       0.68239   0.95246   0.92056  -0.32278
N          N       0.94625   0.68741   0.17322  -0.00188
N          N       0.92267   0.97658   0.34320   0.01717
N          N       0.76858   0.01669   0.39922  -0.32521

