data_crystal

_audit_creation_method 'AiiDA-DDEC plugin'

_cell_length_a        17.10315
_cell_length_b        31.83014
_cell_length_c        31.82932

_cell_angle_alpha     119.95466
_cell_angle_beta     90.00869
_cell_angle_gamma     89.99131

_symmetry_space_group_name_Hall 'P 1'
_symmetry_space_group_name_H-M  'P 1'

loop_
_symmetry_equiv_pos_as_xyz
 'x,y,z'

loop_
_atom_site_label
_atom_site_type_symbol
_atom_site_fract_x
_atom_site_fract_y
_atom_site_fract_z
_atom_site_charge
Sc         Sc      0.65134   0.49702   0.92570   1.79219
Sc         Sc      0.65121   0.42878   0.50353   1.79102
Sc         Sc      0.65136   0.07449   0.57118   1.79096
Sc         Sc      0.84869   0.49645   0.92549   1.79219
Sc         Sc      0.84852   0.42866   0.50317   1.79225
Sc         Sc      0.84862   0.07451   0.57120   1.79155
Sc         Sc      0.34855   0.50372   0.42889   1.79136
Sc         Sc      0.34865   0.57107   0.07451   1.79228
Sc         Sc      0.34851   0.92568   0.49695   1.79197
Sc         Sc      0.15153   0.50316   0.42849   1.79148
Sc         Sc      0.15144   0.57130   0.07449   1.79152
Sc         Sc      0.15113   0.92546   0.49664   1.79162
Sc         Sc      0.74996   0.46145   0.82054   1.80373
Sc         Sc      0.74996   0.35872   0.53855   1.80473
Sc         Sc      0.75000   0.17956   0.64119   1.80390
Sc         Sc      0.25001   0.53894   0.35888   1.80398
Sc         Sc      0.24994   0.64109   0.17958   1.80347
Sc         Sc      0.25003   0.82056   0.46166   1.80345
H          H       0.37588   0.16260   0.63947   0.10416
H          H       0.35948   0.60296   0.87621   0.11858
H          H       0.37632   0.23136   0.68457   0.10619
H          H       0.46657   0.29170   0.68677   0.10319
H          H       0.37458   0.07402   0.59649   0.10939
H          H       0.48023   0.58383   0.90642   0.11778
H          H       0.37597   0.57285   0.72170   0.10894
H          H       0.57206   0.50758   0.76144   0.11554
H          H       0.58621   0.33871   0.72762   0.11375
H          H       0.45024   0.52389   0.73053   0.10461
H          H       0.46044   0.41372   0.86239   0.11319
H          H       0.34085   0.36788   0.82179   0.11059
H          H       0.37606   0.56993   0.65999   0.10991
H          H       0.37427   0.55985   0.57835   0.11425
H          H       0.37645   0.47653   0.83659   0.10377
H          H       0.35957   0.27309   0.39699   0.11560
H          H       0.37634   0.45276   0.76845   0.10634
H          H       0.46650   0.39496   0.70838   0.10285
H          H       0.37692   0.52214   0.92509   0.10973
H          H       0.48009   0.32256   0.41619   0.11859
H          H       0.37588   0.14894   0.42736   0.11004
H          H       0.57219   0.25378   0.49261   0.11603
H          H       0.58616   0.38891   0.66138   0.11405
H          H       0.45059   0.20640   0.47618   0.10372
H          H       0.46025   0.44874   0.58626   0.11355
H          H       0.34063   0.45398   0.63210   0.11136
H          H       0.37641   0.09048   0.42994   0.10948
H          H       0.37571   0.01871   0.43965   0.11402
H          H       0.37700   0.36010   0.52335   0.10382
H          H       0.35944   0.12398   0.72701   0.11809
H          H       0.37650   0.31569   0.54731   0.10593
H          H       0.46649   0.31331   0.60507   0.10336
H          H       0.37754   0.40322   0.47788   0.11017
H          H       0.47989   0.09369   0.67747   0.11810
H          H       0.37576   0.27832   0.85116   0.10987
H          H       0.57225   0.23851   0.74605   0.11583
H          H       0.58620   0.27230   0.61097   0.11382
H          H       0.45080   0.26957   0.79351   0.10395
H          H       0.46030   0.13754   0.55121   0.11326
H          H       0.34058   0.17819   0.54611   0.11149
H          H       0.37607   0.33982   0.90966   0.10970
H          H       0.37492   0.42123   0.98121   0.11455
H          H       0.12340   0.16348   0.63992   0.10402
H          H       0.14047   0.60287   0.87619   0.11829
H          H       0.12368   0.23156   0.68460   0.10604
H          H       0.03345   0.29181   0.68678   0.10337
H          H       0.12299   0.07494   0.59693   0.11032
H          H       0.01960   0.58372   0.90628   0.11747
H          H       0.12417   0.57295   0.72188   0.10855
H          H       0.92810   0.50757   0.76119   0.11596
H          H       0.91378   0.33874   0.72774   0.11399
H          H       0.05000   0.52392   0.73044   0.10436
H          H       0.03981   0.41368   0.86246   0.11297
H          H       0.15941   0.36793   0.82180   0.11138
H          H       0.12326   0.57025   0.66091   0.11138
H          H       0.12318   0.56021   0.57935   0.11469
H          H       0.12417   0.47699   0.83750   0.10328
H          H       0.14065   0.27312   0.39705   0.11588
H          H       0.12356   0.45288   0.76862   0.10675
H          H       0.03352   0.39509   0.70853   0.10302
H          H       0.12558   0.52266   0.92606   0.10879
H          H       0.02012   0.32262   0.41614   0.11818
H          H       0.12405   0.14890   0.42733   0.10993
H          H       0.92774   0.25386   0.49251   0.11574
H          H       0.91389   0.38884   0.66138   0.11359
H          H       0.04932   0.20647   0.47617   0.10423
H          H       0.03950   0.44855   0.58620   0.11377
H          H       0.15920   0.45403   0.63216   0.11141
H          H       0.12374   0.09050   0.43010   0.10905
H          H       0.12463   0.01871   0.43982   0.11412
H          H       0.12435   0.36044   0.52267   0.10345
H          H       0.14056   0.12393   0.72699   0.11589
H          H       0.12378   0.31591   0.54709   0.10668
H          H       0.03331   0.31340   0.60498   0.10312
H          H       0.12598   0.40366   0.47718   0.10985
H          H       0.02014   0.09362   0.67742   0.11813
H          H       0.12412   0.27822   0.85104   0.10999
H          H       0.92776   0.23839   0.74593   0.11837
H          H       0.91370   0.27237   0.61101   0.11353
H          H       0.04921   0.26946   0.79338   0.10406
H          H       0.03968   0.13770   0.55130   0.11351
H          H       0.15925   0.17833   0.54608   0.11102
H          H       0.12336   0.33920   0.90924   0.10936
H          H       0.12344   0.42061   0.98080   0.11472
H          H       0.62386   0.83697   0.47670   0.10289
H          H       0.64013   0.39722   0.27340   0.11882
H          H       0.62367   0.76855   0.45284   0.10655
H          H       0.53355   0.70848   0.39499   0.10315
H          H       0.62416   0.92553   0.52226   0.10929
H          H       0.51945   0.41662   0.32272   0.11783
H          H       0.62415   0.42707   0.14892   0.10692
H          H       0.42821   0.49274   0.25337   0.11639
H          H       0.41389   0.66145   0.38889   0.11374
H          H       0.55012   0.47611   0.20624   0.10399
H          H       0.53981   0.58636   0.44876   0.11327
H          H       0.65945   0.63216   0.45392   0.11130
H          H       0.62342   0.42978   0.09072   0.10972
H          H       0.62350   0.43985   0.01919   0.11390
H          H       0.62333   0.52341   0.36003   0.10399
H          H       0.64042   0.72693   0.12412   0.11534
H          H       0.62353   0.54735   0.31571   0.10618
H          H       0.53352   0.60508   0.31327   0.10333
H          H       0.62293   0.47789   0.40312   0.11018
H          H       0.51990   0.67751   0.09384   0.11758
H          H       0.62429   0.85117   0.27833   0.10631
H          H       0.42784   0.74622   0.23877   0.11530
H          H       0.41381   0.61101   0.27219   0.11363
H          H       0.54942   0.79357   0.26965   0.10366
H          H       0.53979   0.55117   0.13747   0.11307
H          H       0.65948   0.54605   0.17815   0.11174
H          H       0.62388   0.90935   0.33952   0.10943
H          H       0.62437   0.98108   0.42085   0.11422
H          H       0.62426   0.63941   0.16241   0.10377
H          H       0.64049   0.87609   0.60303   0.11591
H          H       0.62374   0.68439   0.23127   0.10656
H          H       0.53332   0.68675   0.29173   0.10306
H          H       0.62586   0.59648   0.07380   0.10927
H          H       0.51990   0.90636   0.58376   0.11821
H          H       0.62409   0.72167   0.57287   0.10961
H          H       0.42781   0.76152   0.50757   0.11861
H          H       0.41369   0.72769   0.33864   0.11317
H          H       0.54948   0.73050   0.52396   0.10408
H          H       0.53962   0.86240   0.41360   0.11361
H          H       0.65920   0.82176   0.36783   0.11093
H          H       0.62374   0.66022   0.57006   0.10951
H          H       0.62494   0.57864   0.56002   0.11355
H          H       0.87605   0.83718   0.47688   0.10319
H          H       0.85952   0.39713   0.27328   0.11802
H          H       0.87651   0.76861   0.45295   0.10685
H          H       0.96653   0.70851   0.39509   0.10344
H          H       0.87542   0.92573   0.52244   0.10880
H          H       0.98016   0.41629   0.32268   0.11819
H          H       0.87601   0.42721   0.14885   0.11029
H          H       0.07199   0.49262   0.25378   0.11572
H          H       0.08619   0.66140   0.38893   0.11423
H          H       0.95035   0.47614   0.20644   0.10393
H          H       0.96034   0.58622   0.44865   0.11374
H          H       0.84079   0.63219   0.45398   0.11090
H          H       0.87599   0.43004   0.09020   0.10905
H          H       0.87431   0.44011   0.01863   0.11355
H          H       0.87579   0.52285   0.36040   0.10371
H          H       0.85929   0.72697   0.12394   0.11564
H          H       0.87634   0.54718   0.31577   0.10648
H          H       0.96649   0.60504   0.31340   0.10293
H          H       0.87445   0.47730   0.40353   0.10972
H          H       0.97985   0.67752   0.09361   0.11802
H          H       0.87590   0.85102   0.27828   0.10695
H          H       0.07227   0.74602   0.23840   0.11567
H          H       0.08623   0.61109   0.27243   0.11411
H          H       0.95077   0.79340   0.26951   0.10432
H          H       0.96041   0.55128   0.13760   0.11390
H          H       0.84078   0.54603   0.17822   0.11115
H          H       0.87647   0.90934   0.33950   0.10968
H          H       0.87595   0.98106   0.42084   0.11459
H          H       0.87679   0.63988   0.16349   0.10375
H          H       0.85952   0.87615   0.60307   0.11616
H          H       0.87634   0.68455   0.23158   0.10605
H          H       0.96649   0.68670   0.29178   0.10322
H          H       0.87759   0.59699   0.07501   0.10978
H          H       0.98020   0.90634   0.58382   0.11815
H          H       0.87591   0.72173   0.57285   0.10836
H          H       0.07214   0.76142   0.50760   0.11861
H          H       0.08625   0.72760   0.33861   0.11382
H          H       0.95044   0.73043   0.52393   0.10416
H          H       0.96041   0.86240   0.41367   0.11371
H          H       0.84071   0.82180   0.36798   0.11093
H          H       0.87653   0.66058   0.57012   0.10998
H          H       0.87605   0.57901   0.56014   0.11455
H          H       0.25011   0.36379   0.76911   0.09994
H          H       0.25018   0.56677   0.83493   0.10466
H          H       0.24992   0.40520   0.63625   0.10027
H          H       0.25001   0.26796   0.43302   0.10480
H          H       0.24970   0.23085   0.59461   0.09987
H          H       0.25005   0.16494   0.73204   0.10506
H          H       0.75010   0.63630   0.40517   0.10026
H          H       0.75012   0.43294   0.26799   0.10436
H          H       0.75015   0.59472   0.23086   0.09985
H          H       0.74989   0.73201   0.16497   0.10543
H          H       0.74977   0.76915   0.36376   0.09986
H          H       0.74996   0.83491   0.56685   0.10527
C          C       0.32142   0.30011   0.72863   0.07138
C          C       0.39462   0.32643   0.75114   0.08128
C          C       0.53148   0.37952   0.79779  -0.06684
C          C       0.31984   0.14416   0.63083  -0.13920
C          C       0.39588   0.56508   0.80098   0.07994
C          C       0.40574   0.58206   0.85088  -0.13787
C          C       0.32072   0.25037   0.69478  -0.16698
C          C       0.46522   0.31805   0.72536  -0.13556
C          C       0.31962   0.09383   0.60614  -0.09321
C          C       0.32132   0.57107   0.78122   0.07106
C          C       0.47341   0.57169   0.86808  -0.08754
C          C       0.32031   0.57247   0.73791  -0.17554
C          C       0.52583   0.52895   0.78644  -0.08570
C          C       0.53244   0.34446   0.74810  -0.09097
C          C       0.45763   0.53887   0.76936  -0.13886
C          C       0.60158   0.52929   0.85388   0.62995
C          C       0.60042   0.40959   0.82289   0.62537
C          C       0.46144   0.38713   0.82392  -0.09269
C          C       0.39432   0.36145   0.80093  -0.13969
C          C       0.53393   0.54449   0.83607  -0.06545
C          C       0.32001   0.56784   0.64305  -0.14195
C          C       0.31968   0.56225   0.59693  -0.08815
C          C       0.32136   0.42836   0.69982   0.07212
C          C       0.39456   0.42464   0.67352   0.08058
C          C       0.53129   0.41832   0.62054  -0.06639
C          C       0.32080   0.48644   0.85542  -0.14058
C          C       0.39599   0.23586   0.43504   0.07999
C          C       0.40582   0.26875   0.41801  -0.13530
C          C       0.32068   0.44415   0.74952  -0.16811
C          C       0.46516   0.40723   0.68200  -0.13464
C          C       0.32159   0.51212   0.90571  -0.09280
C          C       0.32131   0.21021   0.42911   0.07049
C          C       0.47342   0.29639   0.42841  -0.08711
C          C       0.32024   0.16556   0.42780  -0.17639
C          C       0.52591   0.25738   0.47120  -0.08704
C          C       0.53236   0.40362   0.65559  -0.09217
C          C       0.45776   0.23033   0.46125  -0.13775
C          C       0.60154   0.32449   0.47101   0.63164
C          C       0.60019   0.41348   0.59054   0.62467
C          C       0.46125   0.43686   0.61288  -0.09396
C          C       0.39414   0.43952   0.63855  -0.13949
C          C       0.53385   0.29153   0.45571  -0.06579
C          C       0.32062   0.07539   0.43203  -0.14181
C          C       0.32090   0.03479   0.43745  -0.08715
C          C       0.32130   0.27146   0.57169   0.07135
C          C       0.39446   0.24890   0.57548   0.08132
C          C       0.53134   0.20213   0.58165  -0.06677
C          C       0.32131   0.36903   0.51344  -0.13976
C          C       0.39593   0.19916   0.76420   0.07887
C          C       0.40571   0.14928   0.73129  -0.13640
C          C       0.32079   0.30537   0.55584  -0.16650
C          C       0.46512   0.27469   0.59281  -0.13581
C          C       0.32216   0.39375   0.48782  -0.09345
C          C       0.32128   0.21885   0.78988   0.07036
C          C       0.47328   0.13204   0.70363  -0.08851
C          C       0.32015   0.26215   0.83453  -0.17595
C          C       0.52592   0.21360   0.74251  -0.08664
C          C       0.53236   0.25187   0.59634  -0.09129
C          C       0.45780   0.23074   0.76959  -0.13811
C          C       0.60168   0.14623   0.67549   0.63173
C          C       0.60021   0.17688   0.58648   0.62414
C          C       0.46124   0.17603   0.56315  -0.09426
C          C       0.39409   0.19905   0.56056  -0.13946
C          C       0.53389   0.16400   0.70840  -0.06589
C          C       0.32016   0.35686   0.92466  -0.14247
C          C       0.32006   0.40289   0.96521  -0.08691
C          C       0.17870   0.30020   0.72864   0.07033
C          C       0.10551   0.32653   0.75115   0.08198
C          C       0.96863   0.37949   0.79792  -0.06662
C          C       0.17906   0.14463   0.63105  -0.14047
C          C       0.10426   0.56502   0.80094   0.08015
C          C       0.09424   0.58198   0.85082  -0.13806
C          C       0.17933   0.25049   0.69479  -0.16674
C          C       0.03484   0.31814   0.72539  -0.13601
C          C       0.17834   0.09432   0.60636  -0.09301
C          C       0.17885   0.57105   0.78126   0.07124
C          C       0.02650   0.57158   0.86794  -0.08733
C          C       0.17987   0.57251   0.73800  -0.17626
C          C       0.97427   0.52893   0.78625  -0.08673
C          C       0.96762   0.34451   0.74819  -0.09139
C          C       0.04253   0.53887   0.76925  -0.13806
C          C       0.89841   0.52883   0.85337   0.63253
C          C       0.89969   0.40939   0.82324   0.62574
C          C       0.03877   0.38712   0.82399  -0.09382
C          C       0.10590   0.36150   0.80096  -0.14004
C          C       0.96607   0.54434   0.83583  -0.06631
C          C       0.17895   0.56803   0.64356  -0.14314
C          C       0.17818   0.56245   0.59747  -0.08855
C          C       0.17858   0.42842   0.69991   0.07211
C          C       0.10541   0.42466   0.67358   0.07992
C          C       0.96862   0.41810   0.62046  -0.06665
C          C       0.18021   0.48671   0.85592  -0.13980
C          C       0.10405   0.23591   0.43507   0.07931
C          C       0.09432   0.26880   0.41802  -0.13477
C          C       0.17920   0.44422   0.74963  -0.16801
C          C       0.03485   0.40727   0.68209  -0.13493
C          C       0.18049   0.51242   0.90624  -0.09155
C          C       0.17868   0.21020   0.42911   0.07072
C          C       0.02672   0.29644   0.42837  -0.08749
C          C       0.17970   0.16554   0.42781  -0.17623
C          C       0.97405   0.25747   0.47112  -0.08608
C          C       0.96766   0.40357   0.65562  -0.09113
C          C       0.04219   0.23040   0.46122  -0.13838
C          C       0.89848   0.32459   0.47078   0.63105
C          C       0.89959   0.41306   0.59039   0.62547
C          C       0.03860   0.43672   0.61285  -0.09380
C          C       0.10575   0.43950   0.63857  -0.13922
C          C       0.96617   0.29162   0.45561  -0.06682
C          C       0.17957   0.07538   0.43210  -0.14155
C          C       0.17940   0.03478   0.43754  -0.08775
C          C       0.17857   0.27154   0.57154   0.07282
C          C       0.10537   0.24901   0.57535   0.08083
C          C       0.96860   0.20230   0.58177  -0.06759
C          C       0.18048   0.36922   0.51308  -0.13944
C          C       0.10414   0.19908   0.76415   0.07990
C          C       0.09431   0.14922   0.73125  -0.13560
C          C       0.17935   0.30549   0.55571  -0.16795
C          C       0.03472   0.27480   0.59272  -0.13542
C          C       0.18079   0.39395   0.48746  -0.09298
C          C       0.17878   0.21880   0.78985   0.07066
C          C       0.02673   0.13196   0.70359  -0.08801
C          C       0.17979   0.26211   0.83448  -0.17656
C          C       0.97411   0.21349   0.74241  -0.08905
C          C       0.96756   0.25197   0.59635  -0.09087
C          C       0.04225   0.23065   0.76949  -0.13858
C          C       0.89832   0.14612   0.67543   0.63104
C          C       0.89972   0.17722   0.58683   0.62560
C          C       0.03865   0.17616   0.56319  -0.09366
C          C       0.10575   0.19919   0.56050  -0.13954
C          C       0.96611   0.16391   0.70834  -0.06529
C          C       0.17906   0.35647   0.92440  -0.14173
C          C       0.17844   0.40246   0.96492  -0.08786
C          C       0.67870   0.69989   0.42832   0.07225
C          C       0.60554   0.67358   0.42459   0.08091
C          C       0.46875   0.62067   0.41837  -0.06714
C          C       0.67963   0.85563   0.48653  -0.13939
C          C       0.60413   0.43506   0.23591   0.07899
C          C       0.59399   0.41818   0.26890  -0.13836
C          C       0.67935   0.74962   0.44421  -0.16838
C          C       0.53492   0.68206   0.40721  -0.13523
C          C       0.67928   0.90593   0.51220  -0.09300
C          C       0.67877   0.42894   0.21022   0.07268
C          C       0.52631   0.42874   0.29647  -0.08615
C          C       0.67982   0.42750   0.16551  -0.17572
C          C       0.47434   0.47134   0.25712  -0.08680
C          C       0.46771   0.65568   0.40361  -0.09075
C          C       0.54259   0.46125   0.23019  -0.13749
C          C       0.39850   0.47187   0.32436   0.62933
C          C       0.39971   0.59090   0.41394   0.62465
C          C       0.53882   0.61297   0.43685  -0.09365
C          C       0.60596   0.63859   0.43945  -0.13976
C          C       0.46614   0.45608   0.29141  -0.06576
C          C       0.67908   0.43200   0.07561  -0.14172
C          C       0.67842   0.43752   0.03508  -0.08742
C          C       0.67870   0.57172   0.27144   0.07104
C          C       0.60554   0.57546   0.24885   0.08235
C          C       0.46871   0.58162   0.20204  -0.06708
C          C       0.67902   0.51351   0.36899  -0.13997
C          C       0.60408   0.76420   0.19924   0.07874
C          C       0.59415   0.73126   0.14940  -0.13519
C          C       0.67925   0.55589   0.30537  -0.16721
C          C       0.53488   0.59282   0.27464  -0.13669
C          C       0.67828   0.48789   0.39370  -0.09367
C          C       0.67874   0.78986   0.21888   0.07134
C          C       0.52655   0.70365   0.13219  -0.08714
C          C       0.67988   0.83451   0.26217  -0.17364
C          C       0.47413   0.74264   0.21381  -0.08643
C          C       0.46767   0.59636   0.25178  -0.09080
C          C       0.54229   0.76966   0.23086  -0.13689
C          C       0.39838   0.67553   0.14672   0.63266
C          C       0.39973   0.58614   0.17666   0.62657
C          C       0.53883   0.56314   0.17597  -0.09366
C          C       0.60596   0.56053   0.19900  -0.14039
C          C       0.46604   0.70851   0.16426  -0.06618
C          C       0.67962   0.92452   0.35669  -0.14172
C          C       0.67936   0.96511   0.40268  -0.08698
C          C       0.67857   0.72860   0.30006   0.07208
C          C       0.60536   0.75112   0.32640   0.08023
C          C       0.46845   0.79785   0.37947  -0.06692
C          C       0.68035   0.63078   0.14403  -0.14032
C          C       0.60410   0.80091   0.56503   0.07971
C          C       0.59427   0.85079   0.58204  -0.13536
C          C       0.67931   0.69469   0.25031  -0.16711
C          C       0.53471   0.72535   0.31803  -0.13480
C          C       0.68074   0.60616   0.09373  -0.09182
C          C       0.67869   0.78116   0.57102   0.07075
C          C       0.52665   0.86804   0.57165  -0.08764
C          C       0.67974   0.73784   0.57242  -0.17597
C          C       0.47411   0.78645   0.52894  -0.08887
C          C       0.46749   0.74816   0.34444  -0.09092
C          C       0.54227   0.76931   0.53885  -0.13851
C          C       0.39835   0.85388   0.52937   0.63099
C          C       0.39962   0.82306   0.40966   0.62503
C          C       0.53856   0.82394   0.38705  -0.09336
C          C       0.60569   0.80091   0.36139  -0.13952
C          C       0.46610   0.83605   0.54446  -0.06590
C          C       0.67969   0.64312   0.56789  -0.14249
C          C       0.67970   0.59704   0.56238  -0.08711
C          C       0.82148   0.69992   0.42845   0.07247
C          C       0.89463   0.67361   0.42471   0.08022
C          C       0.03124   0.62052   0.41818  -0.06702
C          C       0.82019   0.85577   0.48665  -0.13976
C          C       0.89592   0.43501   0.23592   0.07912
C          C       0.90580   0.41807   0.26888  -0.13745
C          C       0.82086   0.74964   0.44426  -0.16809
C          C       0.96519   0.68211   0.40730  -0.13494
C          C       0.82035   0.90608   0.51232  -0.09172
C          C       0.82135   0.42897   0.21018   0.07118
C          C       0.97343   0.42850   0.29650  -0.08762
C          C       0.82038   0.42761   0.16550  -0.17676
C          C       0.02575   0.47122   0.25741  -0.08633
C          C       0.03233   0.65563   0.40360  -0.09093
C          C       0.95760   0.46122   0.23036  -0.13695
C          C       0.10158   0.47107   0.32449   0.63149
C          C       0.10024   0.59055   0.41318   0.62607
C          C       0.96130   0.61283   0.43676  -0.09369
C          C       0.89425   0.63858   0.43949  -0.13939
C          C       0.03383   0.45579   0.29159  -0.06653
C          C       0.82000   0.43216   0.07531  -0.14171
C          C       0.81973   0.43768   0.03476  -0.08705
C          C       0.82146   0.57159   0.27144   0.07152
C          C       0.89467   0.57537   0.24892   0.08073
C          C       0.03132   0.58179   0.20227  -0.06666
C          C       0.81974   0.51320   0.36919  -0.13979
C          C       0.89581   0.76410   0.19909   0.07970
C          C       0.90561   0.73125   0.14922  -0.13485
C          C       0.82071   0.55579   0.30540  -0.16735
C          C       0.96525   0.59278   0.27477  -0.13482
C          C       0.81952   0.48756   0.39391  -0.09272
C          C       0.82122   0.78980   0.21883   0.07107
C          C       0.97324   0.70365   0.13195  -0.08764
C          C       0.82025   0.83443   0.26215  -0.17467
C          C       0.02588   0.74247   0.21350  -0.08659
C          C       0.03241   0.59641   0.25197  -0.09142
C          C       0.95772   0.76951   0.23069  -0.13820
C          C       0.10162   0.67543   0.14610   0.63051
C          C       0.10020   0.58685   0.17722   0.62460
C          C       0.96134   0.56320   0.17609  -0.09394
C          C       0.89427   0.56050   0.19909  -0.13934
C          C       0.03385   0.70836   0.16393  -0.06588
C          C       0.82070   0.92449   0.35666  -0.14216
C          C       0.82102   0.96508   0.40264  -0.08723
C          C       0.82131   0.72863   0.30020   0.07077
C          C       0.89453   0.75113   0.32653   0.08157
C          C       0.03144   0.79776   0.37946  -0.06757
C          C       0.82116   0.63103   0.14460  -0.14027
C          C       0.89587   0.80091   0.56506   0.07964
C          C       0.90574   0.85080   0.58208  -0.13642
C          C       0.82068   0.69476   0.25048  -0.16653
C          C       0.96515   0.72530   0.31809  -0.13596
C          C       0.82210   0.60639   0.09430  -0.09201
C          C       0.82124   0.78118   0.57103   0.07082
C          C       0.97341   0.86801   0.57169  -0.08687
C          C       0.82021   0.73788   0.57244  -0.17506
C          C       0.02588   0.78639   0.52898  -0.08820
C          C       0.03243   0.74808   0.34443  -0.09085
C          C       0.95767   0.76926   0.53887  -0.13827
C          C       0.10164   0.85377   0.52926   0.63164
C          C       0.10033   0.82288   0.40955   0.62599
C          C       0.96138   0.82393   0.38712  -0.09352
C          C       0.89421   0.80092   0.36151  -0.13966
C          C       0.03394   0.83599   0.54448  -0.06671
C          C       0.82074   0.64335   0.56795  -0.14185
C          C       0.82118   0.59730   0.56245  -0.08791
C          C       0.25010   0.32485   0.74454  -0.18164
C          C       0.24868   0.55889   0.57318  -0.06374
C          C       0.24810   0.54877   0.52291   0.62381
C          C       0.24823   0.01462   0.56809   0.61951
C          C       0.24968   0.17120   0.64553   0.06830
C          C       0.24972   0.57020   0.66747   0.07431
C          C       0.25012   0.57090   0.80304  -0.17957
C          C       0.25003   0.57271   0.71515   0.06434
C          C       0.24997   0.22458   0.67735   0.06540
C          C       0.24873   0.06784   0.59423  -0.06847
C          C       0.24994   0.41955   0.67518  -0.18292
C          C       0.25020   0.01425   0.44099  -0.06505
C          C       0.25046   0.97420   0.45126   0.62331
C          C       0.25185   0.55352   0.98549   0.61975
C          C       0.25025   0.47421   0.82880   0.06878
C          C       0.25006   0.09731   0.42988   0.07407
C          C       0.25000   0.23207   0.42915  -0.17888
C          C       0.24998   0.14253   0.42750   0.06326
C          C       0.24999   0.45253   0.77539   0.06582
C          C       0.25133   0.52651   0.93227  -0.06972
C          C       0.24985   0.25558   0.58040  -0.18291
C          C       0.24904   0.42662   0.98560  -0.06472
C          C       0.24829   0.47687   0.02570   0.62349
C          C       0.25199   0.43204   0.44640   0.61826
C          C       0.25060   0.35457   0.52556   0.06858
C          C       0.24977   0.33257   0.90265   0.07448
C          C       0.25004   0.19696   0.76793  -0.17883
C          C       0.24995   0.28493   0.85753   0.06367
C          C       0.25020   0.32288   0.54735   0.06460
C          C       0.25176   0.40588   0.47345  -0.06809
C          C       0.75010   0.67523   0.41955  -0.18335
C          C       0.74883   0.44110   0.01433  -0.06550
C          C       0.74825   0.45124   0.97419   0.62411
C          C       0.74930   0.98553   0.55355   0.62081
C          C       0.74999   0.82883   0.47425   0.06944
C          C       0.74978   0.42984   0.09740   0.07328
C          C       0.75008   0.42901   0.23208  -0.17978
C          C       0.75005   0.42726   0.14252   0.06529
C          C       0.75009   0.77543   0.45260   0.06567
C          C       0.74971   0.93231   0.52649  -0.06928
C          C       0.75013   0.58047   0.25555  -0.18177
C          C       0.75019   0.98562   0.42663  -0.06448
C          C       0.75039   0.02565   0.47691   0.62236
C          C       0.74812   0.44639   0.43198   0.61814
C          C       0.74962   0.52568   0.35455   0.06879
C          C       0.75017   0.90262   0.33260   0.07473
C          C       0.74995   0.76789   0.19700  -0.17965
C          C       0.75009   0.85749   0.28496   0.06417
C          C       0.74992   0.54747   0.32286   0.06480
C          C       0.74864   0.47352   0.40586  -0.06848
C          C       0.74990   0.74450   0.32482  -0.18234
C          C       0.75058   0.57315   0.55896  -0.06505
C          C       0.75116   0.52285   0.54877   0.62329
C          C       0.75187   0.56808   0.01461   0.61907
C          C       0.75047   0.64546   0.17113   0.06879
C          C       0.75010   0.66740   0.57016   0.07455
C          C       0.74996   0.80297   0.57089  -0.17909
C          C       0.74999   0.71508   0.57266   0.06353
C          C       0.75007   0.67725   0.22454   0.06450
C          C       0.75168   0.59428   0.06779  -0.06924
O          O       0.59531   0.43806   0.86914  -0.66969
O          O       0.31392   0.54363   0.50111  -0.66483
O          O       0.66215   0.40744   0.79867  -0.65353
O          O       0.31400   0.99152   0.55628  -0.67069
O          O       0.65880   0.50706   0.82476  -0.65937
O          O       0.59973   0.53739   0.89783  -0.65789
O          O       0.59516   0.43173   0.56241  -0.66973
O          O       0.31675   0.95790   0.45638  -0.66258
O          O       0.66179   0.39112   0.59226  -0.65429
O          O       0.31797   0.56458   0.00818  -0.66718
O          O       0.65881   0.31726   0.49300  -0.66113
O          O       0.59970   0.36051   0.46319  -0.65723
O          O       0.59517   0.13056   0.56829  -0.66934
O          O       0.31407   0.49869   0.04226  -0.66452
O          O       0.66186   0.20092   0.60884  -0.65487
O          O       0.31797   0.44364   0.43515  -0.66794
O          O       0.65917   0.17525   0.68270  -0.65955
O          O       0.59967   0.10241   0.63947  -0.65799
O          O       0.90479   0.43739   0.86958  -0.67029
O          O       0.18186   0.54373   0.50157  -0.66195
O          O       0.83795   0.40769   0.79924  -0.65423
O          O       0.18214   0.99191   0.55638  -0.66700
O          O       0.84123   0.50676   0.82410  -0.66035
O          O       0.90024   0.53648   0.89714  -0.65879
O          O       0.90453   0.43108   0.56209  -0.66928
O          O       0.18444   0.95767   0.45635  -0.66353
O          O       0.83804   0.39076   0.59239  -0.65473
O          O       0.18611   0.56467   0.00859  -0.67023
O          O       0.84122   0.31753   0.49288  -0.66027
O          O       0.90032   0.36048   0.46274  -0.65755
O          O       0.90471   0.13091   0.56876  -0.67052
O          O       0.18196   0.49812   0.04193  -0.66244
O          O       0.83820   0.20142   0.60923  -0.65455
O          O       0.18611   0.44397   0.43534  -0.67032
O          O       0.84084   0.17515   0.68262  -0.65991
O          O       0.90031   0.10229   0.63945  -0.65754
O          O       0.40472   0.56305   0.43250  -0.66857
O          O       0.68199   0.45626   0.95787  -0.66223
O          O       0.33798   0.59262   0.39164  -0.65529
O          O       0.68309   0.00821   0.56467  -0.66839
O          O       0.34133   0.49378   0.31689  -0.65858
O          O       0.40030   0.46450   0.36067  -0.65866
O          O       0.40479   0.56766   0.13029  -0.67034
O          O       0.68426   0.04198   0.49847  -0.66319
O          O       0.33799   0.60844   0.20059  -0.65579
O          O       0.68202   0.43539   0.44366  -0.66594
O          O       0.34109   0.68277   0.17591  -0.65990
O          O       0.40033   0.63941   0.10299  -0.65905
O          O       0.40472   0.86934   0.43793  -0.66893
O          O       0.68538   0.50104   0.54362  -0.66405
O          O       0.33803   0.79893   0.40789  -0.65451
O          O       0.68596   0.55621   0.99164  -0.67030
O          O       0.34095   0.82483   0.50747  -0.65980
O          O       0.40032   0.89776   0.53727  -0.65790
O          O       0.09542   0.56217   0.43112  -0.66996
O          O       0.81403   0.45635   0.95747  -0.66456
O          O       0.16172   0.59274   0.39094  -0.65410
O          O       0.81510   0.00856   0.56469  -0.66920
O          O       0.15881   0.49323   0.31748  -0.66016
O          O       0.09980   0.46300   0.36039  -0.65885
O          O       0.09534   0.56888   0.13092  -0.66975
O          O       0.81668   0.04201   0.49828  -0.66333
O          O       0.16167   0.60920   0.20154  -0.65406
O          O       0.81390   0.43508   0.44375  -0.67002
O          O       0.15913   0.68251   0.17510  -0.65969
O          O       0.09965   0.63952   0.10222  -0.65707
O          O       0.09519   0.86918   0.43781  -0.67071
O          O       0.81749   0.50155   0.54372  -0.66227
O          O       0.16199   0.79879   0.40773  -0.65384
O          O       0.81782   0.55633   0.99175  -0.66812
O          O       0.15899   0.82470   0.50726  -0.66028
O          O       0.09968   0.89762   0.53713  -0.65751
O          O       0.74995   0.48570   0.89022  -1.18813
O          O       0.74999   0.40434   0.51442  -1.18811
O          O       0.74998   0.10983   0.59561  -1.18758
O          O       0.25000   0.51451   0.40424  -1.18772
O          O       0.25002   0.59568   0.10983  -1.18789
O          O       0.24995   0.89025   0.48576  -1.18802

