data_crystal

_audit_creation_method 'AiiDA-DDEC plugin'

_cell_length_a        30.58272
_cell_length_b        30.58394
_cell_length_c        30.58395

_cell_angle_alpha     59.95755
_cell_angle_beta     59.96245
_cell_angle_gamma     59.96244

_symmetry_space_group_name_Hall 'P 1'
_symmetry_space_group_name_H-M  'P 1'

loop_
_symmetry_equiv_pos_as_xyz
 'x,y,z'

loop_
_atom_site_label
_atom_site_type_symbol
_atom_site_fract_x
_atom_site_fract_y
_atom_site_fract_z
_atom_site_charge
Cu         Cu      0.26599   0.00002   0.00002   0.92201
Cu         Cu      0.34610  -0.00002  -0.00002   0.91219
Cu         Cu     -0.00000   0.26598   0.73402   0.92226
Cu         Cu     -0.00000   0.34611   0.65389   0.91150
Cu         Cu      0.73401  -0.00002  -0.00002   0.92222
Cu         Cu      0.65390   0.00002   0.00002   0.91207
Cu         Cu     -0.00000   0.73402   0.26598   0.92225
Cu         Cu     -0.00000   0.65389   0.34611   0.91151
Cu         Cu      0.73401   0.26598   0.00001   0.92235
Cu         Cu      0.65389   0.34611  -0.00001   0.91134
Cu         Cu     -0.00002  -0.00003   0.73401   0.92219
Cu         Cu      0.00002   0.00003   0.65390   0.91200
Cu         Cu      0.26598   0.73402  -0.00001   0.92238
Cu         Cu      0.34610   0.65389   0.00001   0.91167
Cu         Cu      0.00002   0.00003   0.26599   0.92195
Cu         Cu     -0.00002  -0.00003   0.34611   0.91203
Cu         Cu     -0.00002   0.73401  -0.00003   0.92222
Cu         Cu      0.00002   0.65390   0.00003   0.91195
Cu         Cu      0.26598  -0.00001   0.73402   0.92227
Cu         Cu      0.34610   0.00000   0.65389   0.91177
Cu         Cu      0.00002   0.26599   0.00003   0.92193
Cu         Cu     -0.00002   0.34610  -0.00003   0.91206
Cu         Cu      0.73401   0.00001   0.26598   0.92244
Cu         Cu      0.65389  -0.00001   0.34611   0.91131
H          H       0.44311   0.03181   0.83329   0.13062
H          H       0.55669   0.06078   0.61349   0.31470
H          H       0.03182   0.44319   0.69169   0.13365
H          H       0.06080   0.55662   0.76913   0.31444
H          H       0.69169   0.83336   0.03182   0.13414
H          H       0.76906   0.61343   0.06079   0.30944
H          H       0.83333   0.69167   0.44317   0.13391
H          H       0.61344   0.76912   0.55664   0.30951
H          H       0.69168   0.44316   0.83334   0.13414
H          H       0.76910   0.55665   0.61346   0.30985
H          H       0.83335   0.03181   0.69170   0.13372
H          H       0.61343   0.06078   0.76907   0.30943
H          H       0.44318   0.69169   0.03182   0.13367
H          H       0.55663   0.76912   0.06080   0.31467
H          H       0.03181   0.83328   0.44311   0.13046
H          H       0.06077   0.61349   0.55670   0.31437
H          H       0.03181   0.69169   0.83337   0.13402
H          H       0.06078   0.76907   0.61342   0.30945
H          H       0.44315   0.83335   0.69167   0.13368
H          H       0.55664   0.61344   0.76912   0.31010
H          H       0.83328   0.44311   0.03182   0.13378
H          H       0.61348   0.55670   0.06078   0.31442
H          H       0.69169   0.03182   0.44318   0.13390
H          H       0.76911   0.06080   0.55664   0.31434
H          H       0.55681   0.96818   0.30831   0.13377
H          H       0.44336   0.93920   0.23089   0.31400
H          H       0.96818   0.55689   0.16672   0.13067
H          H       0.93922   0.44330   0.38651   0.31454
H          H       0.30831   0.16666   0.55684   0.13372
H          H       0.23089   0.38655   0.44335   0.30979
H          H       0.16664   0.30830   0.96819   0.13364
H          H       0.38656   0.23093   0.93922   0.31004
H          H       0.30830   0.55682   0.96818   0.13340
H          H       0.23088   0.44336   0.93920   0.31423
H          H       0.16670   0.96818   0.55689   0.13073
H          H       0.38651   0.93922   0.44330   0.31455
H          H       0.55684   0.30833   0.16665   0.13393
H          H       0.44335   0.23088   0.38656   0.30939
H          H       0.96818   0.16663   0.30831   0.13376
H          H       0.93921   0.38658   0.23093   0.30996
H          H       0.96817   0.30831   0.55681   0.13358
H          H       0.93919   0.23087   0.44337   0.31447
H          H       0.55688   0.16671   0.96819   0.13443
H          H       0.44330   0.38651   0.93922   0.31408
H          H       0.16666   0.55683   0.30833   0.13403
H          H       0.38655   0.44337   0.23088   0.30958
H          H       0.30830   0.96818   0.16664   0.13032
H          H       0.23092   0.93922   0.38657   0.31000
H          H       0.55688   0.96818   0.16672   0.13439
H          H       0.44330   0.93922   0.38652   0.31403
H          H       0.96817   0.55681   0.30832   0.13371
H          H       0.93919   0.44337   0.23087   0.31438
H          H       0.30830   0.16664   0.96819   0.13006
H          H       0.23093   0.38657   0.93922   0.31003
H          H       0.16666   0.30833   0.55683   0.13391
H          H       0.38655   0.23088   0.44337   0.30964
H          H       0.30831   0.55684   0.16667   0.13372
H          H       0.23089   0.44335   0.38655   0.30969
H          H       0.16664   0.96818   0.30830   0.13391
H          H       0.38656   0.93922   0.23094   0.31001
H          H       0.55681   0.30830   0.96818   0.13353
H          H       0.44336   0.23088   0.93920   0.31406
H          H       0.96818   0.16672   0.55689   0.13073
H          H       0.93922   0.38651   0.44330   0.31464
H          H       0.96818   0.30831   0.16663   0.13371
H          H       0.93921   0.23093   0.38658   0.30997
H          H       0.55684   0.16665   0.30833   0.13402
H          H       0.44335   0.38656   0.23089   0.30938
H          H       0.16671   0.55689   0.96819   0.13120
H          H       0.38651   0.44330   0.93922   0.31426
H          H       0.30830   0.96818   0.55682   0.13333
H          H       0.23088   0.93920   0.44336   0.31450
H          H       0.44318   0.03182   0.69169   0.13367
H          H       0.55663   0.06080   0.76912   0.31462
H          H       0.03181   0.44311   0.83328   0.13038
H          H       0.06077   0.55670   0.61349   0.31458
H          H       0.69168   0.83333   0.44316   0.13420
H          H       0.76910   0.61345   0.55665   0.30961
H          H       0.83335   0.69170   0.03182   0.13370
H          H       0.61343   0.76907   0.06078   0.30952
H          H       0.69169   0.44318   0.03182   0.13393
H          H       0.76911   0.55664   0.06080   0.31439
H          H       0.83328   0.03181   0.44311   0.13379
H          H       0.61348   0.06078   0.55670   0.31440
H          H       0.44315   0.69167   0.83335   0.13395
H          H       0.55664   0.76911   0.61344   0.31011
H          H       0.03181   0.83337   0.69169   0.13376
H          H       0.06078   0.61342   0.76907   0.30938
H          H       0.03182   0.69168   0.44319   0.13383
H          H       0.06080   0.76913   0.55663   0.31423
H          H       0.44311   0.83329   0.03182   0.13381
H          H       0.55669   0.61348   0.06078   0.31479
H          H       0.83333   0.44317   0.69167   0.13370
H          H       0.61344   0.55663   0.76912   0.30978
H          H       0.69169   0.03181   0.83336   0.13094
H          H       0.76907   0.06078   0.61343   0.30938
H          H       0.30948   0.01434   0.83812   0.14253
H          H       0.01434   0.30947   0.83813   0.14246
H          H       0.83805   0.83805   0.01435   0.14183
H          H       0.83809   0.83811   0.30945   0.14209
H          H       0.83809   0.30944   0.83812   0.14226
H          H       0.83805   0.01435   0.83805   0.14182
H          H       0.30947   0.83812   0.01434   0.14252
H          H       0.01434   0.83813   0.30947   0.14224
H          H       0.01435   0.83805   0.83805   0.14207
H          H       0.30946   0.83810   0.83810   0.14249
H          H       0.83811   0.30949   0.01434   0.14221
H          H       0.83811   0.01434   0.30949   0.14221
H          H       0.69051   0.98566   0.16188   0.14187
H          H       0.98565   0.69053   0.16187   0.14207
H          H       0.16190   0.16188   0.69056   0.14242
H          H       0.16194   0.16194   0.98565   0.14246
H          H       0.16188   0.69051   0.98566   0.14220
H          H       0.16188   0.98565   0.69052   0.14242
H          H       0.69053   0.16190   0.16190   0.14214
H          H       0.98564   0.16195   0.16195   0.14230
H          H       0.98565   0.16187   0.69053   0.14219
H          H       0.69052   0.16188   0.98566   0.14206
H          H       0.16190   0.69056   0.16189   0.14234
H          H       0.16194   0.98565   0.16195   0.14239
C          C       0.34836   0.01608   0.89950   0.58628
C          C       0.37386   0.02281   0.84121  -0.03051
C          C       0.42379   0.03013   0.81272  -0.12661
C          C       0.01607   0.34839   0.73605   0.58601
C          C       0.02281   0.37387   0.76209  -0.03107
C          C       0.03013   0.42382   0.73327  -0.12836
C          C       0.73600   0.89950   0.01609   0.58573
C          C       0.76206   0.84121   0.02282  -0.03071
C          C       0.73327   0.81276   0.03014  -0.12832
C          C       0.89952   0.73603   0.34837   0.58630
C          C       0.84123   0.76208   0.37386  -0.03089
C          C       0.81277   0.73327   0.42382  -0.12873
C          C       0.73603   0.34836   0.89953   0.58570
C          C       0.76208   0.37386   0.84124  -0.03078
C          C       0.73327   0.42381   0.81277  -0.12829
C          C       0.89950   0.01608   0.73601   0.58633
C          C       0.84121   0.02282   0.76207  -0.03101
C          C       0.81275   0.03014   0.73328  -0.12859
C          C       0.34839   0.73605   0.01607   0.58593
C          C       0.37387   0.76209   0.02281  -0.03092
C          C       0.42382   0.73328   0.03014  -0.12847
C          C       0.01607   0.89950   0.34835   0.58628
C          C       0.02281   0.84121   0.37386  -0.03075
C          C       0.03013   0.81272   0.42380  -0.12601
C          C       0.01608   0.73600   0.89950   0.58598
C          C       0.02282   0.76205   0.84121  -0.03069
C          C       0.03014   0.73327   0.81276  -0.12833
C          C       0.34837   0.89953   0.73602   0.58601
C          C       0.37386   0.84123   0.76208  -0.03085
C          C       0.42381   0.81277   0.73327  -0.12851
C          C       0.89949   0.34836   0.01608   0.58645
C          C       0.84121   0.37386   0.02281  -0.03093
C          C       0.81272   0.42380   0.03013  -0.12894
C          C       0.73604   0.01607   0.34840   0.58603
C          C       0.76208   0.02281   0.37388  -0.03109
C          C       0.73327   0.03014   0.42382  -0.12802
C          C       0.65160   0.98393   0.26396   0.58625
C          C       0.62611   0.97719   0.23791  -0.03117
C          C       0.57617   0.96986   0.26672  -0.12819
C          C       0.98391   0.65165   0.10050   0.58620
C          C       0.97718   0.62615   0.15879  -0.03051
C          C       0.96986   0.57621   0.18728  -0.12567
C          C       0.26397   0.10047   0.65164   0.58566
C          C       0.23791   0.15876   0.62614  -0.03093
C          C       0.26672   0.18723   0.57619  -0.12838
C          C       0.10050   0.26399   0.98392   0.58530
C          C       0.15878   0.23793   0.97718  -0.03050
C          C       0.18724   0.26672   0.96986  -0.12879
C          C       0.26395   0.65160   0.98393   0.58642
C          C       0.23791   0.62612   0.97719  -0.03127
C          C       0.26672   0.57617   0.96987  -0.12835
C          C       0.10049   0.98392   0.65164   0.58619
C          C       0.15878   0.97719   0.62614  -0.03062
C          C       0.18727   0.96986   0.57620  -0.12567
C          C       0.65162   0.26398   0.10047   0.58633
C          C       0.62613   0.23792   0.15876  -0.03098
C          C       0.57618   0.26673   0.18723  -0.12842
C          C       0.98391   0.10050   0.26400   0.58575
C          C       0.97717   0.15879   0.23794  -0.03069
C          C       0.96985   0.18724   0.26673  -0.12863
C          C       0.98392   0.26395   0.65161   0.58633
C          C       0.97718   0.23791   0.62612  -0.03108
C          C       0.96986   0.26673   0.57618  -0.12860
C          C       0.65164   0.10050   0.98392   0.58621
C          C       0.62613   0.15878   0.97719  -0.03073
C          C       0.57620   0.18727   0.96987  -0.12867
C          C       0.10047   0.65163   0.26397   0.58578
C          C       0.15876   0.62614   0.23792  -0.03076
C          C       0.18722   0.57618   0.26673  -0.12846
C          C       0.26399   0.98391   0.10050   0.58562
C          C       0.23793   0.97718   0.15879  -0.03054
C          C       0.26671   0.96986   0.18725  -0.12639
C          C       0.65163   0.98392   0.10050   0.58645
C          C       0.62613   0.97719   0.15879  -0.03069
C          C       0.57619   0.96987   0.18728  -0.12886
C          C       0.98392   0.65161   0.26396   0.58656
C          C       0.97718   0.62612   0.23792  -0.03106
C          C       0.96986   0.57618   0.26673  -0.12856
C          C       0.26399   0.10050   0.98391   0.58534
C          C       0.23793   0.15879   0.97718  -0.03030
C          C       0.26672   0.18724   0.96986  -0.12580
C          C       0.10047   0.26397   0.65163   0.58586
C          C       0.15876   0.23792   0.62614  -0.03075
C          C       0.18722   0.26673   0.57619  -0.12861
C          C       0.26396   0.65164   0.10047   0.58593
C          C       0.23791   0.62614   0.15876  -0.03106
C          C       0.26672   0.57619   0.18723  -0.12847
C          C       0.10049   0.98391   0.26399   0.58539
C          C       0.15878   0.97718   0.23794  -0.03073
C          C       0.18724   0.96986   0.26672  -0.12853
C          C       0.65160   0.26395   0.98393   0.58625
C          C       0.62612   0.23791   0.97719  -0.03136
C          C       0.57617   0.26672   0.96987  -0.12813
C          C       0.98391   0.10049   0.65165   0.58609
C          C       0.97718   0.15878   0.62615  -0.03046
C          C       0.96986   0.18728   0.57621  -0.12572
C          C       0.98391   0.26400   0.10050   0.58589
C          C       0.97717   0.23794   0.15879  -0.03073
C          C       0.96985   0.26673   0.18724  -0.12868
C          C       0.65162   0.10047   0.26398   0.58625
C          C       0.62613   0.15876   0.23793  -0.03085
C          C       0.57618   0.18723   0.26673  -0.12842
C          C       0.10049   0.65163   0.98392   0.58638
C          C       0.15878   0.62613   0.97719  -0.03068
C          C       0.18727   0.57620   0.96987  -0.12623
C          C       0.26395   0.98393   0.65161   0.58631
C          C       0.23791   0.97719   0.62612  -0.03120
C          C       0.26672   0.96986   0.57618  -0.12843
C          C       0.34839   0.01607   0.73605   0.58606
C          C       0.37388   0.02281   0.76209  -0.03107
C          C       0.42382   0.03013   0.73328  -0.12839
C          C       0.01608   0.34835   0.89951   0.58641
C          C       0.02281   0.37385   0.84122  -0.03064
C          C       0.03013   0.42379   0.81272  -0.12589
C          C       0.73602   0.89953   0.34837   0.58580
C          C       0.76208   0.84124   0.37386  -0.03071
C          C       0.73327   0.81277   0.42381  -0.12840
C          C       0.89949   0.73601   0.01609   0.58621
C          C       0.84120   0.76206   0.02282  -0.03095
C          C       0.81275   0.73328   0.03014  -0.12855
C          C       0.73604   0.34840   0.01607   0.58613
C          C       0.76208   0.37388   0.02281  -0.03112
C          C       0.73327   0.42382   0.03014  -0.12807
C          C       0.89950   0.01608   0.34836   0.58638
C          C       0.84121   0.02281   0.37386  -0.03088
C          C       0.81272   0.03013   0.42380  -0.12903
C          C       0.34837   0.73602   0.89953   0.58614
C          C       0.37386   0.76207   0.84124  -0.03095
C          C       0.42381   0.73327   0.81277  -0.12847
C          C       0.01608   0.89950   0.73600   0.58612
C          C       0.02282   0.84121   0.76206  -0.03095
C          C       0.03014   0.81276   0.73328  -0.12848
C          C       0.01607   0.73604   0.34839   0.58615
C          C       0.02281   0.76209   0.37388  -0.03111
C          C       0.03013   0.73327   0.42382  -0.12828
C          C       0.34835   0.89950   0.01608   0.58620
C          C       0.37386   0.84121   0.02281  -0.03061
C          C       0.42379   0.81272   0.03013  -0.12910
C          C       0.89952   0.34837   0.73603   0.58630
C          C       0.84123   0.37386   0.76208  -0.03086
C          C       0.81277   0.42381   0.73327  -0.12876
C          C       0.73600   0.01609   0.89950   0.58574
C          C       0.76206   0.02282   0.84121  -0.03066
C          C       0.73328   0.03014   0.81276  -0.12575
C          C       0.34833   0.01983   0.81592  -0.09929
C          C       0.44924   0.03461   0.75804   0.13263
C          C       0.49967   0.04221   0.72902  -0.14193
C          C       0.54417   0.04703   0.70444  -0.07027
C          C       0.59620   0.04989   0.67698  -0.14381
C          C       0.01983   0.34833   0.81592  -0.09936
C          C       0.03461   0.44924   0.75804   0.13250
C          C       0.04221   0.49967   0.72902  -0.14203
C          C       0.04703   0.54417   0.70445  -0.07012
C          C       0.04989   0.59620   0.67698  -0.14400
C          C       0.81588   0.81589   0.01985  -0.09942
C          C       0.75806   0.75807   0.03461   0.13252
C          C       0.72905   0.72906   0.04220  -0.14215
C          C       0.70440   0.70440   0.04702  -0.06972
C          C       0.67697   0.67697   0.04988  -0.14382
C          C       0.81592   0.81593   0.34831  -0.09961
C          C       0.75808   0.75807   0.44923   0.13258
C          C       0.72905   0.72905   0.49967  -0.14212
C          C       0.70439   0.70441   0.54416  -0.06989
C          C       0.67694   0.67696   0.59620  -0.14318
C          C       0.81592   0.34831   0.81593  -0.09948
C          C       0.75808   0.44923   0.75807   0.13242
C          C       0.72905   0.49967   0.72905  -0.14185
C          C       0.70439   0.54415   0.70441  -0.07004
C          C       0.67694   0.59619   0.67696  -0.14316
C          C       0.81589   0.01984   0.81589  -0.09932
C          C       0.75806   0.03461   0.75807   0.13264
C          C       0.72905   0.04220   0.72906  -0.14209
C          C       0.70440   0.04702   0.70441  -0.06965
C          C       0.67697   0.04987   0.67697  -0.14398
C          C       0.34833   0.81592   0.01983  -0.09937
C          C       0.44924   0.75804   0.03461   0.13258
C          C       0.49967   0.72902   0.04221  -0.14206
C          C       0.54417   0.70444   0.04703  -0.07023
C          C       0.59620   0.67698   0.04989  -0.14384
C          C       0.01983   0.81592   0.34833  -0.09932
C          C       0.03460   0.75803   0.44924   0.13260
C          C       0.04221   0.72902   0.49968  -0.14202
C          C       0.04703   0.70444   0.54417  -0.07022
C          C       0.04989   0.67698   0.59621  -0.14401
C          C       0.01984   0.81588   0.81589  -0.09963
C          C       0.03460   0.75806   0.75807   0.13233
C          C       0.04220   0.72906   0.72906  -0.14197
C          C       0.04701   0.70441   0.70441  -0.06995
C          C       0.04987   0.67697   0.67698  -0.14368
C          C       0.34832   0.81592   0.81592  -0.09936
C          C       0.44923   0.75808   0.75808   0.13221
C          C       0.49966   0.72906   0.72906  -0.14177
C          C       0.54415   0.70440   0.70441  -0.06998
C          C       0.59618   0.67696   0.67696  -0.14337
C          C       0.81591   0.34834   0.01983  -0.09935
C          C       0.75804   0.44924   0.03461   0.13247
C          C       0.72902   0.49967   0.04221  -0.14220
C          C       0.70443   0.54417   0.04703  -0.07011
C          C       0.67698   0.59620   0.04989  -0.14389
C          C       0.81591   0.01983   0.34834  -0.09931
C          C       0.75804   0.03461   0.44924   0.13248
C          C       0.72902   0.04221   0.49968  -0.14216
C          C       0.70444   0.04703   0.54417  -0.07011
C          C       0.67698   0.04989   0.59620  -0.14413
C          C       0.65166   0.98017   0.18408  -0.09960
C          C       0.55075   0.96539   0.24196   0.13247
C          C       0.50032   0.95779   0.27098  -0.14224
C          C       0.45582   0.95297   0.29557  -0.07003
C          C       0.40379   0.95011   0.32302  -0.14397
C          C       0.98016   0.65167   0.18408  -0.09959
C          C       0.96538   0.55076   0.24197   0.13271
C          C       0.95778   0.50032   0.27098  -0.14220
C          C       0.95296   0.45583   0.29556  -0.07002
C          C       0.95010   0.40379   0.32302  -0.14403
C          C       0.18407   0.18407   0.65169  -0.09913
C          C       0.24191   0.24193   0.55077   0.13212
C          C       0.27094   0.27095   0.50033  -0.14184
C          C       0.29560   0.29559   0.45584  -0.06990
C          C       0.32305   0.32304   0.40381  -0.14359
C          C       0.18411   0.18411   0.98016  -0.09933
C          C       0.24193   0.24193   0.96539   0.13246
C          C       0.27094   0.27094   0.95780  -0.14140
C          C       0.29559   0.29559   0.95298  -0.07041
C          C       0.32302   0.32303   0.95013  -0.14342
C          C       0.18408   0.65166   0.98017  -0.09938
C          C       0.24195   0.55076   0.96539   0.13270
C          C       0.27097   0.50032   0.95779  -0.14200
C          C       0.29556   0.45583   0.95297  -0.07025
C          C       0.32301   0.40380   0.95011  -0.14403
C          C       0.18408   0.98017   0.65166  -0.09947
C          C       0.24195   0.96539   0.55076   0.13263
C          C       0.27097   0.95779   0.50033  -0.14199
C          C       0.29555   0.95297   0.45583  -0.07031
C          C       0.32301   0.95011   0.40380  -0.14377
C          C       0.65167   0.18408   0.18408  -0.09949
C          C       0.55076   0.24192   0.24192   0.13221
C          C       0.50033   0.27094   0.27094  -0.14185
C          C       0.45584   0.29559   0.29560  -0.06994
C          C       0.40381   0.32304   0.32304  -0.14358
C          C       0.98015   0.18412   0.18412  -0.09926
C          C       0.96539   0.24193   0.24194   0.13248
C          C       0.95779   0.27094   0.27094  -0.14165
C          C       0.95298   0.29559   0.29559  -0.07041
C          C       0.95012   0.32303   0.32303  -0.14293
C          C       0.98016   0.18408   0.65167  -0.09950
C          C       0.96539   0.24196   0.55076   0.13270
C          C       0.95778   0.27098   0.50033  -0.14219
C          C       0.95296   0.29555   0.45583  -0.07002
C          C       0.95010   0.32302   0.40380  -0.14395
C          C       0.65166   0.18408   0.98017  -0.09953
C          C       0.55075   0.24196   0.96539   0.13245
C          C       0.50032   0.27097   0.95779  -0.14224
C          C       0.45582   0.29556   0.95297  -0.07009
C          C       0.40379   0.32302   0.95011  -0.14405
C          C       0.18407   0.65169   0.18408  -0.09918
C          C       0.24191   0.55077   0.24193   0.13215
C          C       0.27094   0.50033   0.27095  -0.14183
C          C       0.29560   0.45584   0.29559  -0.07002
C          C       0.32305   0.40380   0.32304  -0.14349
C          C       0.18410   0.98016   0.18411  -0.09919
C          C       0.24193   0.96539   0.24194   0.13253
C          C       0.27094   0.95780   0.27094  -0.14150
C          C       0.29559   0.95298   0.29560  -0.07026
C          C       0.32302   0.95012   0.32303  -0.14339
C          C       0.62303   0.05065   0.62304   0.26103
C          C       0.05063   0.62302   0.70333   0.26155
C          C       0.70332   0.62302   0.05064   0.26183
C          C       0.62300   0.70334   0.62301   0.26127
C          C       0.70332   0.62301   0.62302   0.26133
C          C       0.62302   0.05064   0.70332   0.26173
C          C       0.62302   0.70332   0.05064   0.26172
C          C       0.05065   0.62304   0.62304   0.26107
C          C       0.05063   0.70333   0.62302   0.26180
C          C       0.62300   0.62301   0.70334   0.26130
C          C       0.62303   0.62304   0.05065   0.26096
C          C       0.70332   0.05064   0.62302   0.26191
C          C       0.37697   0.94936   0.29668   0.26140
C          C       0.94934   0.37696   0.37696   0.26102
C          C       0.29667   0.37698   0.37699   0.26150
C          C       0.37697   0.29667   0.94936   0.26156
C          C       0.29667   0.37698   0.94936   0.26168
C          C       0.37696   0.94935   0.37697   0.26119
C          C       0.37699   0.29666   0.37699   0.26156
C          C       0.94936   0.37698   0.29667   0.26129
C          C       0.94936   0.29667   0.37698   0.26124
C          C       0.37696   0.37696   0.94935   0.26120
C          C       0.37699   0.37699   0.29666   0.26158
C          C       0.29667   0.94936   0.37698   0.26137
N          N       0.59718   0.05077   0.59719  -0.58904
N          N       0.05076   0.59712   0.75494  -0.58480
N          N       0.75492   0.59713   0.05076  -0.58547
N          N       0.59714   0.75496   0.59714  -0.58100
N          N       0.75494   0.59715   0.59715  -0.58139
N          N       0.59713   0.05076   0.75493  -0.58500
N          N       0.59713   0.75493   0.05076  -0.58513
N          N       0.05077   0.59719   0.59719  -0.58913
N          N       0.05076   0.75493   0.59712  -0.58505
N          N       0.59714   0.59713   0.75496  -0.58100
N          N       0.59718   0.59719   0.05077  -0.58916
N          N       0.75492   0.05076   0.59713  -0.58531
N          N       0.40286   0.94924   0.24508  -0.58503
N          N       0.94922   0.40281   0.40281  -0.58989
N          N       0.24505   0.40285   0.40285  -0.58076
N          N       0.40286   0.24507   0.94924  -0.58485
N          N       0.24507   0.40287   0.94924  -0.58489
N          N       0.40281   0.94923   0.40281  -0.58951
N          N       0.40285   0.24504   0.40286  -0.58058
N          N       0.94923   0.40288   0.24506  -0.58513
N          N       0.94923   0.24506   0.40288  -0.58507
N          N       0.40281   0.40281   0.94923  -0.58941
N          N       0.40285   0.40286   0.24504  -0.58067
N          N       0.24506   0.94924   0.40287  -0.58484
O          O       0.30117   0.01307   0.92235  -0.53368
O          O       0.37588   0.01335   0.92207  -0.54516
O          O       0.01304   0.30120   0.76344  -0.53428
O          O       0.01333   0.37592   0.68866  -0.54486
O          O       0.76339   0.92230   0.01307  -0.53480
O          O       0.68862   0.92213   0.01336  -0.54400
O          O       0.92234   0.76342   0.30118  -0.53429
O          O       0.92211   0.68863   0.37591  -0.54470
O          O       0.76341   0.30117   0.92236  -0.53409
O          O       0.68863   0.37590   0.92212  -0.54404
O          O       0.92229   0.01306   0.76340  -0.53465
O          O       0.92212   0.01335   0.68863  -0.54479
O          O       0.30120   0.76344   0.01304  -0.53418
O          O       0.37592   0.68866   0.01333  -0.54492
O          O       0.01306   0.92236   0.30117  -0.53401
O          O       0.01334   0.92207   0.37588  -0.54475
O          O       0.01306   0.76339   0.92230  -0.53467
O          O       0.01335   0.68862   0.92214  -0.54434
O          O       0.30118   0.92235   0.76342  -0.53349
O          O       0.37590   0.92213   0.68863  -0.54505
O          O       0.92234   0.30118   0.01307  -0.53406
O          O       0.92207   0.37589   0.01335  -0.54528
O          O       0.76343   0.01304   0.30121  -0.53468
O          O       0.68865   0.01333   0.37593  -0.54446
O          O       0.69878   0.98696   0.23657  -0.53506
O          O       0.62407   0.98667   0.31134  -0.54422
O          O       0.98693   0.69883   0.07764  -0.53440
O          O       0.98665   0.62412   0.07793  -0.54430
O          O       0.23658   0.07764   0.69883  -0.53365
O          O       0.31136   0.07788   0.62410  -0.54474
O          O       0.07770   0.23660   0.98694  -0.53339
O          O       0.07787   0.31137   0.98665  -0.54497
O          O       0.23656   0.69878   0.98696  -0.53456
O          O       0.31134   0.62407   0.98667  -0.54507
O          O       0.07765   0.98693   0.69882  -0.53432
O          O       0.07792   0.98665   0.62412  -0.54434
O          O       0.69881   0.23659   0.07765  -0.53446
O          O       0.62409   0.31137   0.07787  -0.54439
O          O       0.98693   0.07771   0.23661  -0.53394
O          O       0.98664   0.07786   0.31138  -0.54485
O          O       0.98695   0.23656   0.69880  -0.53450
O          O       0.98666   0.31134   0.62408  -0.54491
O          O       0.69882   0.07765   0.98693  -0.53473
O          O       0.62411   0.07793   0.98665  -0.54429
O          O       0.07765   0.69882   0.23658  -0.53412
O          O       0.07787   0.62409   0.31137  -0.54444
O          O       0.23660   0.98693   0.07771  -0.53355
O          O       0.31137   0.98664   0.07788  -0.54480
O          O       0.69882   0.98693   0.07765  -0.53490
O          O       0.62411   0.98665   0.07793  -0.54443
O          O       0.98695   0.69879   0.23657  -0.53484
O          O       0.98666   0.62408   0.31135  -0.54480
O          O       0.23660   0.07770   0.98694  -0.53341
O          O       0.31137   0.07787   0.98664  -0.54459
O          O       0.07765   0.23658   0.69882  -0.53390
O          O       0.07787   0.31137   0.62409  -0.54478
O          O       0.23658   0.69883   0.07764  -0.53375
O          O       0.31136   0.62410   0.07788  -0.54481
O          O       0.07770   0.98694   0.23661  -0.53367
O          O       0.07787   0.98664   0.31137  -0.54465
O          O       0.69879   0.23656   0.98696  -0.53478
O          O       0.62407   0.31134   0.98667  -0.54455
O          O       0.98693   0.07764   0.69883  -0.53442
O          O       0.98665   0.07793   0.62412  -0.54427
O          O       0.98693   0.23661   0.07771  -0.53399
O          O       0.98664   0.31138   0.07787  -0.54490
O          O       0.69881   0.07765   0.23659  -0.53448
O          O       0.62409   0.07787   0.31138  -0.54438
O          O       0.07765   0.69882   0.98694  -0.53473
O          O       0.07792   0.62411   0.98666  -0.54419
O          O       0.23656   0.98695   0.69879  -0.53430
O          O       0.31134   0.98667   0.62408  -0.54519
O          O       0.30121   0.01304   0.76344  -0.53419
O          O       0.37592   0.01333   0.68866  -0.54495
O          O       0.01306   0.30117   0.92236  -0.53382
O          O       0.01334   0.37588   0.92207  -0.54507
O          O       0.76341   0.92236   0.30118  -0.53446
O          O       0.68863   0.92212   0.37591  -0.54384
O          O       0.92229   0.76340   0.01306  -0.53463
O          O       0.92212   0.68863   0.01336  -0.54468
O          O       0.76343   0.30121   0.01305  -0.53473
O          O       0.68865   0.37593   0.01333  -0.54449
O          O       0.92234   0.01307   0.30118  -0.53403
O          O       0.92207   0.01334   0.37589  -0.54527
O          O       0.30118   0.76341   0.92235  -0.53381
O          O       0.37590   0.68862   0.92213  -0.54476
O          O       0.01306   0.92229   0.76339  -0.53452
O          O       0.01335   0.92213   0.68862  -0.54458
O          O       0.01304   0.76343   0.30121  -0.53460
O          O       0.01333   0.68866   0.37593  -0.54472
O          O       0.30117   0.92235   0.01307  -0.53364
O          O       0.37588   0.92207   0.01335  -0.54541
O          O       0.92234   0.30118   0.76342  -0.53404
O          O       0.92212   0.37591   0.68863  -0.54496
O          O       0.76339   0.01306   0.92230  -0.53475
O          O       0.68862   0.01336   0.92213  -0.54368

