data_crystal

_audit_creation_method 'AiiDA-DDEC plugin'

_cell_length_a        12.23617
_cell_length_b        24.98856
_cell_length_c        31.40214

_cell_angle_alpha     90.01993
_cell_angle_beta     89.99490
_cell_angle_gamma     96.78033

_symmetry_space_group_name_Hall 'P 1'
_symmetry_space_group_name_H-M  'P 1'

loop_
_symmetry_equiv_pos_as_xyz
 'x,y,z'

loop_
_atom_site_label
_atom_site_type_symbol
_atom_site_fract_x
_atom_site_fract_y
_atom_site_fract_z
_atom_site_charge
Zn         Zn      0.58510   0.20766   0.25923   0.81640
Zn         Zn      0.39269   0.25263   0.27005   0.81469
Zn         Zn      0.69967   0.43051   0.64045   0.84993
Zn         Zn      0.29969   0.08639   0.87416   0.86153
Zn         Zn      0.91418   0.29230   0.75922   0.81495
Zn         Zn      0.10750   0.24746   0.77004   0.81621
Zn         Zn      0.80057   0.06875   0.14048   0.85235
Zn         Zn      0.20019   0.41381   0.37408   0.85864
Zn         Zn      0.41489   0.79233   0.74077   0.81627
Zn         Zn      0.60730   0.74736   0.72995   0.81485
Zn         Zn      0.30032   0.56949   0.35955   0.85023
Zn         Zn      0.70029   0.91360   0.12584   0.86137
Zn         Zn      0.08581   0.70770   0.24078   0.81505
Zn         Zn      0.89249   0.75254   0.22997   0.81619
Zn         Zn      0.19942   0.93125   0.85952   0.85210
Zn         Zn      0.79980   0.58618   0.62592   0.85881
H          H       0.64485   0.10903   0.21031   0.10165
H          H       0.70213   0.16554   0.17984   0.11555
H          H       0.81274   0.23980   0.21487   0.10712
H          H       0.83994   0.23697   0.27067   0.09315
H          H       0.76154   0.15946   0.31178   0.10437
H          H       0.68017   0.10500   0.28606   0.10444
H          H       0.98621   0.13542   0.18776   0.09605
H          H       0.89668   0.18081   0.16682   0.10343
H          H       0.76548   0.04654   0.23874   0.09596
H          H       0.90988   0.05793   0.22885   0.09619
H          H       0.95687   0.17536   0.29809   0.08922
H          H       0.01936   0.13158   0.26269   0.08280
H          H       0.27689   0.30602   0.34474   0.10717
H          H       0.34657   0.35688   0.31173   0.10771
H          H       0.31879   0.35367   0.23516   0.10607
H          H       0.22953   0.29998   0.21204   0.10367
H          H       0.13450   0.23087   0.25693   0.09317
H          H       0.15586   0.23308   0.31329   0.09960
H          H       0.09933   0.41849   0.28430   0.09317
H          H       0.24426   0.42124   0.27647   0.09675
H          H       0.07897   0.30162   0.35501   0.09850
H          H       0.00397   0.34916   0.32896   0.10028
H          H       0.03446   0.29435   0.22280   0.09117
H          H       0.97770   0.34515   0.25289   0.08358
H          H       0.52984   0.42238   0.23206   0.11700
H          H       0.54985   0.52032   0.21169   0.11170
H          H       0.66782   0.60867   0.20638   0.11052
H          H       0.94473   0.53796   0.25481   0.11414
H          H       0.92712   0.44051   0.27178   0.09845
H          H       0.81042   0.35126   0.27661   0.10633
H          H       0.25563   0.23427   0.14405   0.10996
H          H       0.20289   0.21236   0.06868   0.11433
H          H       0.25088   0.17709   0.99786   0.11508
H          H       0.57400   0.13118   0.97608   0.12230
H          H       0.62866   0.15751   0.05085   0.11822
H          H       0.58130   0.19202   0.12087   0.12947
H          H       0.43309   0.30236   0.39868   0.12222
H          H       0.40800   0.35726   0.46226   0.12480
H          H       0.47234   0.38979   0.53447   0.12500
H          H       0.72487   0.28412   0.53272   0.11719
H          H       0.75217   0.22979   0.46723   0.11560
H          H       0.69714   0.20347   0.39289   0.11192
H          H       0.41887   0.44447   0.65366   0.10979
H          H       0.22943   0.39571   0.65474   0.11017
H          H       0.02746   0.39815   0.65129   0.11107
H          H       0.07512   0.56910   0.62859   0.12291
H          H       0.26641   0.61697   0.62286   0.11643
H          H       0.46816   0.61459   0.62780   0.11131
H          H       0.85513   0.39087   0.71039   0.10271
H          H       0.79802   0.33429   0.67993   0.11562
H          H       0.68722   0.26015   0.71490   0.10718
H          H       0.65990   0.26297   0.77067   0.09317
H          H       0.73824   0.34062   0.81181   0.10390
H          H       0.81973   0.39501   0.78608   0.10421
H          H       0.51385   0.36451   0.68775   0.09738
H          H       0.60323   0.31900   0.66684   0.10395
H          H       0.73457   0.45341   0.73869   0.09588
H          H       0.59017   0.44204   0.72876   0.09760
H          H       0.54308   0.32470   0.79809   0.08943
H          H       0.48055   0.36843   0.76269   0.08392
H          H       0.22326   0.19420   0.84469   0.10774
H          H       0.15356   0.14329   0.81170   0.10841
H          H       0.18115   0.14636   0.73518   0.11138
H          H       0.27043   0.19997   0.71198   0.10327
H          H       0.36573   0.26921   0.75687   0.09294
H          H       0.34439   0.26702   0.81324   0.09984
H          H       0.40081   0.08162   0.78429   0.09268
H          H       0.25586   0.07878   0.77650   0.09786
H          H       0.42143   0.19853   0.85495   0.09904
H          H       0.49618   0.15093   0.82886   0.09843
H          H       0.46551   0.20562   0.72270   0.09090
H          H       0.52231   0.15485   0.75278   0.08535
H          H       0.96986   0.07758   0.73203   0.11709
H          H       0.95015   0.97969   0.71160   0.11416
H          H       0.83268   0.89123   0.70638   0.11067
H          H       0.55529   0.96167   0.75485   0.11372
H          H       0.57248   0.05920   0.77172   0.09855
H          H       0.68919   0.14849   0.77657   0.10712
H          H       0.24342   0.26567   0.64421   0.10913
H          H       0.29706   0.28753   0.56898   0.11394
H          H       0.25009   0.32307   0.49804   0.11550
H          H       0.92760   0.36961   0.47593   0.12217
H          H       0.87182   0.34269   0.55045   0.11722
H          H       0.91819   0.30814   0.62050   0.12752
H          H       0.06728   0.19781   0.89865   0.12206
H          H       0.09202   0.14279   0.96241   0.12455
H          H       0.02677   0.11021   0.03444   0.12444
H          H       0.77480   0.21622   0.03244   0.11769
H          H       0.74799   0.27042   0.96705   0.11487
H          H       0.80349   0.29676   0.89277   0.11118
H          H       0.08103   0.05533   0.15377   0.11013
H          H       0.27105   0.10419   0.15460   0.11005
H          H       0.47264   0.10161   0.15117   0.11112
H          H       0.42457   0.93054   0.12842   0.12301
H          H       0.23357   0.88287   0.12272   0.11741
H          H       0.03185   0.88531   0.12786   0.11139
H          H       0.35514   0.89096   0.78969   0.10121
H          H       0.29786   0.83445   0.82016   0.11570
H          H       0.18725   0.76020   0.78513   0.10728
H          H       0.16005   0.76302   0.72933   0.09336
H          H       0.23845   0.84053   0.68822   0.10455
H          H       0.31981   0.89500   0.71394   0.10395
H          H       0.01378   0.86458   0.81224   0.09621
H          H       0.10331   0.81918   0.83318   0.10368
H          H       0.23451   0.95345   0.76126   0.09559
H          H       0.09011   0.94206   0.77115   0.09625
H          H       0.04312   0.82464   0.70191   0.08937
H          H       0.98063   0.86841   0.73731   0.08294
H          H       0.72310   0.69398   0.65526   0.10695
H          H       0.65342   0.64312   0.68827   0.10821
H          H       0.68119   0.64633   0.76484   0.10645
H          H       0.77046   0.70002   0.78796   0.10342
H          H       0.86549   0.76913   0.74307   0.09293
H          H       0.84413   0.76692   0.68671   0.09946
H          H       0.90066   0.58150   0.71570   0.09307
H          H       0.75573   0.57875   0.72353   0.09712
H          H       0.92102   0.69837   0.64499   0.09852
H          H       0.99602   0.65083   0.67104   0.10027
H          H       0.96553   0.70564   0.77720   0.09086
H          H       0.02229   0.65485   0.74711   0.08342
H          H       0.47015   0.57762   0.76794   0.11673
H          H       0.45014   0.47968   0.78831   0.11138
H          H       0.33217   0.39133   0.79362   0.11082
H          H       0.05525   0.46204   0.74519   0.11449
H          H       0.07287   0.55948   0.72822   0.09864
H          H       0.18957   0.64873   0.72339   0.10627
H          H       0.74436   0.76572   0.85595   0.10982
H          H       0.79710   0.78763   0.93132   0.11417
H          H       0.74911   0.82291   0.00214   0.11479
H          H       0.42599   0.86882   0.02392   0.12232
H          H       0.37133   0.84248   0.94915   0.11849
H          H       0.41869   0.80798   0.87913   0.12968
H          H       0.56690   0.69763   0.60132   0.12214
H          H       0.59199   0.64273   0.53774   0.12482
H          H       0.52765   0.61021   0.46553   0.12503
H          H       0.27512   0.71588   0.46728   0.11706
H          H       0.24782   0.77021   0.53277   0.11574
H          H       0.30285   0.79652   0.60711   0.11189
H          H       0.58112   0.55553   0.34634   0.10957
H          H       0.77056   0.60429   0.34526   0.11019
H          H       0.97253   0.60184   0.34871   0.11068
H          H       0.92487   0.43089   0.37141   0.12299
H          H       0.73358   0.38303   0.37714   0.11661
H          H       0.53183   0.38540   0.37220   0.11173
H          H       0.14486   0.60912   0.28961   0.10305
H          H       0.20197   0.66570   0.32007   0.11557
H          H       0.31277   0.73985   0.28510   0.10713
H          H       0.34009   0.73702   0.22933   0.09314
H          H       0.26174   0.65937   0.18819   0.10372
H          H       0.18025   0.60499   0.21392   0.10465
H          H       0.48614   0.63548   0.31225   0.09728
H          H       0.39676   0.68099   0.33316   0.10380
H          H       0.26542   0.54658   0.26131   0.09629
H          H       0.40981   0.55795   0.27124   0.09757
H          H       0.45691   0.67529   0.20191   0.08934
H          H       0.51944   0.63157   0.23731   0.08396
H          H       0.77673   0.80580   0.15531   0.10790
H          H       0.84643   0.85671   0.18830   0.10812
H          H       0.81884   0.85363   0.26482   0.10638
H          H       0.72956   0.80002   0.28802   0.10371
H          H       0.63425   0.73079   0.24313   0.09318
H          H       0.65560   0.73298   0.18676   0.09999
H          H       0.59918   0.91838   0.21571   0.09283
H          H       0.74413   0.92122   0.22350   0.09754
H          H       0.57855   0.80146   0.14505   0.09912
H          H       0.50381   0.84907   0.17114   0.09850
H          H       0.53448   0.79438   0.27730   0.09117
H          H       0.47768   0.84514   0.24722   0.08533
H          H       0.03013   0.92242   0.26797   0.11738
H          H       0.04984   0.02030   0.28840   0.11352
H          H       0.16731   0.10876   0.29362   0.11059
H          H       0.44470   0.03832   0.24515   0.11351
H          H       0.42751   0.94079   0.22828   0.09827
H          H       0.31080   0.85151   0.22343   0.10716
H          H       0.75657   0.73433   0.35579   0.10931
H          H       0.70293   0.71246   0.43102   0.11421
H          H       0.74990   0.67692   0.50196   0.11559
H          H       0.07238   0.63038   0.52407   0.12197
H          H       0.12817   0.65730   0.44955   0.11709
H          H       0.08180   0.69185   0.37950   0.12719
H          H       0.93271   0.80218   0.10135   0.12225
H          H       0.90797   0.85720   0.03759   0.12463
H          H       0.97322   0.88979   0.96556   0.12441
H          H       0.22519   0.78377   0.96756   0.11764
H          H       0.25200   0.72957   0.03295   0.11482
H          H       0.19650   0.70323   0.10723   0.11113
H          H       0.91896   0.94467   0.84623   0.11030
H          H       0.72894   0.89581   0.84540   0.11009
H          H       0.52735   0.89839   0.84883   0.11160
H          H       0.57542   0.06946   0.87158   0.12289
H          H       0.76641   0.11713   0.87728   0.11733
H          H       0.96813   0.11469   0.87214   0.11096
C          C       0.71645   0.13942   0.20675  -0.00623
C          C       0.82895   0.21321   0.24133   0.00469
C          C       0.75222   0.13528   0.28261   0.00298
C          C       0.91269   0.15541   0.19408  -0.00445
C          C       0.83636   0.07757   0.23561   0.00296
C          C       0.94532   0.15119   0.26892   0.00542
C          C       0.26988   0.33001   0.31590  -0.00111
C          C       0.24141   0.32728   0.23936  -0.00168
C          C       0.14749   0.25745   0.28468   0.00233
C          C       0.16741   0.39420   0.28031   0.00620
C          C       0.07240   0.32478   0.32564   0.00145
C          C       0.04756   0.32162   0.25017   0.00918
C          C       0.59689   0.32791   0.25779   0.58444
C          C       0.66357   0.38204   0.25437  -0.02577
C          C       0.61675   0.42674   0.24042  -0.14124
C          C       0.68071   0.47765   0.23649   0.07780
C          C       0.63595   0.52414   0.22134  -0.14256
C          C       0.70060   0.57306   0.21847  -0.11192
C          C       0.81302   0.57841   0.23095  -0.03525
C          C       0.85881   0.53357   0.24517  -0.13302
C          C       0.79510   0.48260   0.24802   0.07636
C          C       0.84083   0.43612   0.26244  -0.13293
C          C       0.77702   0.38712   0.26532  -0.11210
C          C       0.87980   0.63269   0.23013   0.58337
C          C       0.44849   0.22414   0.18286   0.58603
C          C       0.42171   0.21424   0.13691  -0.04270
C          C       0.31418   0.22031   0.12182  -0.11439
C          C       0.28531   0.20817   0.08027  -0.13377
C          C       0.36218   0.18888   0.05176   0.07279
C          C       0.33360   0.17370   0.00944  -0.14074
C          C       0.40891   0.15304   0.98284  -0.03117
C          C       0.51707   0.14783   0.99760  -0.10340
C          C       0.54717   0.16245   0.03866  -0.12943
C          C       0.47103   0.18308   0.06674   0.07514
C          C       0.49887   0.19661   0.10952  -0.13075
C          C       0.37350   0.13248   0.93999   0.54510
C          C       0.53255   0.23849   0.34598   0.58927
C          C       0.56182   0.25176   0.39130  -0.04417
C          C       0.50282   0.28666   0.41370  -0.13561
C          C       0.53315   0.30331   0.45555   0.07114
C          C       0.47726   0.34159   0.47782  -0.13354
C          C       0.51223   0.35936   0.51764  -0.10391
C          C       0.60283   0.33849   0.53743  -0.03323
C          C       0.65632   0.29988   0.51689  -0.14902
C          C       0.62484   0.28224   0.47534   0.07229
C          C       0.68251   0.24547   0.45210  -0.13896
C          C       0.65242   0.23089   0.41103  -0.11071
C          C       0.64550   0.36006   0.57941   0.55314
C          C       0.57542   0.52778   0.64517   0.60286
C          C       0.45459   0.52916   0.64197  -0.04457
C          C       0.38448   0.48189   0.64740  -0.12963
C          C       0.26926   0.48164   0.64404   0.07316
C          C       0.19591   0.43355   0.64911  -0.12216
C          C       0.08391   0.43473   0.64725  -0.09989
C          C       0.04067   0.48442   0.64091  -0.03943
C          C       0.11019   0.53180   0.63477  -0.13653
C          C       0.22565   0.53156   0.63567   0.07742
C          C       0.29960   0.57933   0.62966  -0.12259
C          C       0.41152   0.57819   0.63251  -0.09665
C          C       0.91976   0.48576   0.64156   0.59864
C          C       0.78355   0.36046   0.70680  -0.00865
C          C       0.67090   0.28674   0.74136   0.00577
C          C       0.74764   0.36475   0.78264   0.00612
C          C       0.58728   0.34447   0.69409  -0.00680
C          C       0.66365   0.42240   0.73558   0.00185
C          C       0.55459   0.34883   0.76892   0.00443
C          C       0.23028   0.17014   0.81587  -0.00424
C          C       0.25858   0.17274   0.73933  -0.00203
C          C       0.35268   0.24263   0.78461   0.00066
C          C       0.33265   0.10587   0.78031   0.00661
C          C       0.42778   0.17533   0.82557   0.00200
C          C       0.45245   0.17838   0.75008   0.00753
C          C       0.90156   0.17214   0.75778   0.58547
C          C       0.83577   0.11780   0.75433  -0.02525
C          C       0.88295   0.07318   0.74041  -0.14110
C          C       0.81914   0.02222   0.73649   0.07684
C          C       0.86409   0.97579   0.72132  -0.14419
C          C       0.79971   0.92680   0.71846  -0.11273
C          C       0.68727   0.92128   0.73096  -0.03338
C          C       0.64121   0.96607   0.74518  -0.13257
C          C       0.70471   0.01712   0.74802   0.07404
C          C       0.65877   0.06356   0.76242  -0.13204
C          C       0.72243   0.11258   0.76530  -0.11435
C          C       0.62117   0.86683   0.73005   0.58361
C          C       0.04993   0.27581   0.68279   0.58472
C          C       0.07737   0.28575   0.63686  -0.04422
C          C       0.18508   0.27967   0.62192  -0.11349
C          C       0.21454   0.29183   0.58042  -0.13303
C          C       0.13815   0.31122   0.55178   0.07030
C          C       0.16730   0.32651   0.50952  -0.13890
C          C       0.09251   0.34747   0.48287  -0.03261
C          C       0.98418   0.35270   0.49745  -0.10275
C          C       0.95345   0.33779   0.53838  -0.12694
C          C       0.02916   0.31705   0.56657   0.07452
C          C       0.00072   0.30348   0.60930  -0.12707
C          C       0.12879   0.36817   0.44016   0.54293
C          C       0.96893   0.26149   0.84597   0.58684
C          C       0.93884   0.24839   0.89125  -0.04109
C          C      -0.00247   0.21344   0.91370  -0.13812
C          C       0.96691   0.19677   0.95550   0.07070
C          C       0.02258   0.15849   0.97784  -0.13274
C          C       0.98719   0.14073   0.01760  -0.10385
C          C       0.89666   0.16174   0.03734  -0.03209
C          C       0.84338   0.20035   0.01672  -0.15125
C          C       0.87509   0.21788   0.97518   0.07265
C          C       0.81763   0.25469   0.95192  -0.13688
C          C       0.84807   0.26929   0.91088  -0.11185
C          C       0.85414   0.14057   0.07949   0.55635
C          C       0.92432   0.97203   0.14518   0.60635
C          C       0.04530   0.97077   0.14196  -0.04356
C          C       0.11559   0.01799   0.14739  -0.13289
C          C       0.23086   0.01820   0.14406   0.07668
C          C       0.30433   0.06626   0.14910  -0.12166
C          C       0.41629   0.06499   0.14724  -0.10041
C          C       0.45957   0.01529   0.14095  -0.04164
C          C       0.38993   0.96793   0.13476  -0.13423
C          C       0.27444   0.96827   0.13567   0.07585
C          C       0.20039   0.92053   0.12958  -0.12262
C          C       0.08846   0.92173   0.13244  -0.09684
C          C       0.58062   0.01432   0.14154   0.59957
C          C       0.28354   0.86057   0.79325  -0.00623
C          C       0.17103   0.78678   0.75867   0.00457
C          C       0.24777   0.86471   0.71739   0.00281
C          C       0.08730   0.84459   0.80592  -0.00450
C          C       0.16363   0.92243   0.76439   0.00279
C          C       0.05467   0.84880   0.73108   0.00562
C          C       0.73011   0.66998   0.68410  -0.00113
C          C       0.75857   0.67272   0.76064  -0.00157
C          C       0.85249   0.74254   0.71532   0.00211
C          C       0.83258   0.60580   0.71969   0.00646
C          C       0.92759   0.67522   0.67436   0.00087
C          C       0.95243   0.67837   0.74983   0.00941
C          C       0.40310   0.67209   0.74221   0.58474
C          C       0.33642   0.61795   0.74563  -0.02574
C          C       0.38324   0.57326   0.75958  -0.14132
C          C       0.31928   0.52235   0.76351   0.07773
C          C       0.36404   0.47585   0.77866  -0.14253
C          C       0.29939   0.42693   0.78153  -0.11225
C          C       0.18697   0.42158   0.76905  -0.03533
C          C       0.14118   0.46643   0.75483  -0.13273
C          C       0.20489   0.51740   0.75198   0.07618
C          C       0.15916   0.56388   0.73757  -0.13273
C          C       0.22297   0.61288   0.73468  -0.11220
C          C       0.12019   0.36730   0.76987   0.58349
C          C       0.55150   0.77586   0.81714   0.58579
C          C       0.57828   0.78575   0.86309  -0.04252
C          C       0.68580   0.77968   0.87818  -0.11427
C          C       0.71468   0.79182   0.91973  -0.13397
C          C       0.63781   0.81112   0.94824   0.07299
C          C       0.66639   0.82630   0.99056  -0.14078
C          C       0.59108   0.84696   0.01716  -0.03125
C          C       0.48292   0.85217   0.00240  -0.10321
C          C       0.45282   0.83754   0.96135  -0.12942
C          C       0.52896   0.81692   0.93326   0.07511
C          C       0.50112   0.80339   0.89048  -0.13076
C          C       0.62649   0.86751   0.06001   0.54512
C          C       0.46744   0.76150   0.65402   0.58930
C          C       0.43817   0.74824   0.60870  -0.04419
C          C       0.49717   0.71333   0.58630  -0.13578
C          C       0.46684   0.69668   0.54445   0.07118
C          C       0.52272   0.65840   0.52218  -0.13383
C          C       0.48775   0.64064   0.48236  -0.10377
C          C       0.39716   0.66150   0.46257  -0.03328
C          C       0.34367   0.70011   0.48311  -0.14852
C          C       0.37514   0.71776   0.52466   0.07215
C          C       0.31748   0.75452   0.54790  -0.13891
C          C       0.34757   0.76911   0.58897  -0.11077
C          C       0.35449   0.63993   0.42059   0.55312
C          C       0.42457   0.47221   0.35483   0.60259
C          C       0.54540   0.47084   0.35803  -0.04456
C          C       0.61551   0.51811   0.35260  -0.12964
C          C       0.73073   0.51836   0.35596   0.07342
C          C       0.80408   0.56645   0.35089  -0.12252
C          C       0.91608   0.56527   0.35275  -0.10007
C          C       0.95932   0.51557   0.35909  -0.03970
C          C       0.88980   0.46820   0.36523  -0.13614
C          C       0.77434   0.46844   0.36433   0.07745
C          C       0.70039   0.42067   0.37034  -0.12273
C          C       0.58847   0.42180   0.36749  -0.09651
C          C       0.08022   0.51424   0.35844   0.59889
C          C       0.21644   0.63953   0.29320  -0.00870
C          C       0.32909   0.71325   0.25864   0.00538
C          C       0.25234   0.63525   0.21736   0.00599
C          C       0.41271   0.65552   0.30591  -0.00685
C          C       0.33634   0.57760   0.26442   0.00195
C          C       0.44539   0.65116   0.23108   0.00385
C          C       0.76971   0.82986   0.18413  -0.00434
C          C       0.74141   0.82725   0.26067   0.00022
C          C       0.64731   0.75736   0.21539   0.00071
C          C       0.66734   0.89413   0.21969   0.00615
C          C       0.57221   0.82467   0.17443   0.00210
C          C       0.54754   0.82161   0.24992   0.00780
C          C       0.09842   0.82786   0.24222   0.58549
C          C       0.16422   0.88219   0.24567  -0.02521
C          C       0.11704   0.92681   0.25959  -0.14109
C          C       0.18085   0.97777   0.26351   0.07687
C          C       0.13590   0.02420   0.27868  -0.14306
C          C       0.20028   0.07320   0.28154  -0.11275
C          C       0.31272   0.07871   0.26904  -0.03340
C          C       0.35878   0.03392   0.25482  -0.13316
C          C       0.29528   0.98287   0.25198   0.07455
C          C       0.34122   0.93644   0.23758  -0.13251
C          C       0.27756   0.88742   0.23470  -0.11409
C          C       0.37881   0.13316   0.26995   0.58367
C          C       0.95006   0.72418   0.31721   0.58490
C          C       0.92262   0.71424   0.36314  -0.04428
C          C       0.81491   0.72032   0.37808  -0.11357
C          C       0.78545   0.70816   0.41958  -0.13301
C          C       0.86184   0.68877   0.44822   0.07014
C          C       0.83269   0.67348   0.49048  -0.13852
C          C       0.90748   0.65253   0.51713  -0.03284
C          C       0.01581   0.64730   0.50255  -0.10239
C          C       0.04654   0.66220   0.46162  -0.12726
C          C       0.97083   0.68295   0.43343   0.07446
C          C      -0.00073   0.69652   0.39070  -0.12696
C          C       0.87120   0.63182   0.55984   0.54266
C          C       0.03106   0.73850   0.15403   0.58667
C          C       0.06114   0.75160   0.10875  -0.04082
C          C       0.00246   0.78656   0.08630  -0.13822
C          C       0.03308   0.80322   0.04450   0.07082
C          C       0.97740   0.84150   0.02216  -0.13263
C          C       0.01280   0.85927   0.98240  -0.10398
C          C       0.10332   0.83826   0.96266  -0.03211
C          C       0.15661   0.79965   0.98328  -0.15128
C          C       0.12489   0.78211   0.02482   0.07258
C          C       0.18235   0.74530   0.04808  -0.13691
C          C       0.15192   0.73070   0.08912  -0.11188
C          C       0.14585   0.85942   0.92051   0.55641
C          C       0.07567   0.02796   0.85482   0.60649
C          C       0.95469   0.02922   0.85804  -0.04355
C          C       0.88440   0.98201   0.85261  -0.13291
C          C       0.76913   0.98179   0.85594   0.07659
C          C       0.69566   0.93373   0.85090  -0.12136
C          C       0.58370   0.93501   0.85276  -0.10049
C          C       0.54042   0.98471   0.85905  -0.04159
C          C       0.61006   0.03207   0.86524  -0.13437
C          C       0.72555   0.03173   0.86433   0.07603
C          C       0.79960   0.07946   0.87042  -0.12266
C          C       0.91153   0.07826   0.86756  -0.09701
C          C       0.41936   0.98567   0.85846   0.59922
N          N       0.72995   0.17202   0.24650  -0.16636
N          N       0.81617   0.11242   0.19803  -0.18649
N          N       0.85107   0.10923   0.27468  -0.21083
N          N       0.92823   0.18745   0.23296  -0.20566
N          N       0.25321   0.29351   0.27851  -0.16752
N          N       0.17648   0.36257   0.32067  -0.19044
N          N       0.14902   0.35877   0.24349  -0.20669
N          N       0.05394   0.28866   0.28909  -0.21072
N          N       0.76987   0.32794   0.74657  -0.16661
N          N       0.68385   0.38741   0.69805  -0.18314
N          N       0.64884   0.39081   0.77466  -0.21237
N          N       0.57164   0.31250   0.73298  -0.20586
N          N       0.24690   0.20660   0.77845  -0.16748
N          N       0.32361   0.13756   0.82066  -0.18798
N          N       0.35095   0.14123   0.74346  -0.20955
N          N       0.44613   0.21138   0.78900  -0.21008
N          N       0.27004   0.82798   0.75350  -0.16624
N          N       0.18382   0.88757   0.80197  -0.18678
N          N       0.14892   0.89077   0.72532  -0.21097
N          N       0.07176   0.81255   0.76704  -0.20491
N          N       0.74677   0.70649   0.72149  -0.16724
N          N       0.82350   0.63743   0.67933  -0.19004
N          N       0.85097   0.64123   0.75651  -0.20656
N          N       0.94605   0.71133   0.71091  -0.21135
N          N       0.23012   0.67205   0.25343  -0.16624
N          N       0.31614   0.61258   0.30195  -0.18311
N          N       0.35115   0.60919   0.22534  -0.21202
N          N       0.42835   0.68750   0.26702  -0.20634
N          N       0.75309   0.79340   0.22155  -0.16706
N          N       0.67638   0.86244   0.17934  -0.18817
N          N       0.64904   0.85876   0.25654  -0.20917
N          N       0.55386   0.78862   0.21100  -0.20919
O          O       0.49226   0.32548   0.25616  -0.55621
O          O       0.65124   0.28767   0.26233  -0.54966
O          O       0.98074   0.63542   0.24145  -0.55614
O          O       0.83002   0.67252   0.21889  -0.55002
O          O       0.37104   0.23788   0.20645  -0.55215
O          O       0.54463   0.21713   0.19580  -0.54928
O          O       0.43981   0.10985   0.91629  -0.55837
O          O       0.27437   0.13524   0.92724  -0.55200
O          O       0.44989   0.25917   0.33091  -0.55469
O          O       0.59226   0.20893   0.32519  -0.55115
O          O       0.71409   0.33714   0.60032  -0.55856
O          O       0.60870   0.40458   0.59191  -0.56021
O          O       0.63686   0.56883   0.63118  -0.53535
O          O       0.60995   0.48650   0.66236  -0.59326
O          O       0.85949   0.44157   0.63318  -0.52471
O          O       0.88285   0.52950   0.65218  -0.59629
O          O       0.00613   0.17476   0.75621  -0.55847
O          O       0.84655   0.21218   0.76229  -0.55083
O          O       0.52005   0.86371   0.74129  -0.55549
O          O       0.67178   0.82724   0.71888  -0.54918
O          O       0.12710   0.26199   0.70644  -0.55152
O          O       0.95376   0.28286   0.69571  -0.54731
O          O       0.06326   0.39167   0.41663  -0.55543
O          O       0.22737   0.36462   0.42727  -0.55050
O          O       0.05172   0.24077   0.83105  -0.55311
O          O       0.90966   0.29110   0.82504  -0.54966
O          O       0.78780   0.16444   0.10070  -0.55845
O          O       0.88903   0.09544   0.09170  -0.56414
O          O       0.86298   0.93104   0.13109  -0.53502
O          O       0.88904   0.01309   0.16254  -0.59549
O          O       0.64023   0.05873   0.13321  -0.52351
O          O       0.61886   0.97083   0.15208  -0.59828
O          O       0.50772   0.67451   0.74384  -0.55659
O          O       0.34874   0.71233   0.73767  -0.54961
O          O       0.01925   0.36457   0.75855  -0.55599
O          O       0.16997   0.32747   0.78111  -0.55014
O          O       0.62895   0.76211   0.79355  -0.55239
O          O       0.45536   0.78287   0.80420  -0.54877
O          O       0.56018   0.89014   0.08371  -0.55805
O          O       0.72562   0.86476   0.07276  -0.55239
O          O       0.55010   0.74083   0.66909  -0.55485
O          O       0.40773   0.79107   0.67481  -0.55110
O          O       0.28590   0.66286   0.39968  -0.55850
O          O       0.39129   0.59542   0.40809  -0.56032
O          O       0.36313   0.43116   0.36882  -0.53479
O          O       0.39004   0.51349   0.33764  -0.59333
O          O       0.14050   0.55843   0.36682  -0.52524
O          O       0.11714   0.47049   0.34782  -0.59621
O          O       0.99385   0.82523   0.24379  -0.55761
O          O       0.15344   0.78781   0.23771  -0.55105
O          O       0.47994   0.13628   0.25871  -0.55570
O          O       0.32821   0.17276   0.28112  -0.54899
O          O       0.87288   0.73800   0.29356  -0.55132
O          O       0.04622   0.71713   0.30429  -0.54784
O          O       0.93672   0.60833   0.58337  -0.55558
O          O       0.77262   0.63538   0.57273  -0.55000
O          O       0.94827   0.75923   0.16895  -0.55288
O          O       0.09033   0.70890   0.17496  -0.54965
O          O       0.21219   0.83556   0.89930  -0.55850
O          O       0.11096   0.90456   0.90830  -0.56424
O          O       0.13701   0.06896   0.86891  -0.53558
O          O       0.11095   0.98690   0.83746  -0.59530
O          O       0.35976   0.94126   0.86679  -0.52293
O          O       0.38113   0.02917   0.84792  -0.59841

