data_crystal

_audit_creation_method 'AiiDA-DDEC plugin'

_cell_length_a        15.33879
_cell_length_b        23.10616
_cell_length_c        23.10368

_cell_angle_alpha     83.66858
_cell_angle_beta     70.58167
_cell_angle_gamma     70.57800

_symmetry_space_group_name_Hall 'P 1'
_symmetry_space_group_name_H-M  'P 1'

loop_
_symmetry_equiv_pos_as_xyz
 'x,y,z'

loop_
_atom_site_label
_atom_site_type_symbol
_atom_site_fract_x
_atom_site_fract_y
_atom_site_fract_z
_atom_site_charge
La         La      0.15190   0.24219   0.69913   1.86653
La         La      0.34487   0.28660   0.76333   2.00396
La         La      0.09311   0.75789   0.30119   1.86867
La         La      0.39520   0.71332   0.23674   2.00369
La         La      0.14482   0.19868   0.25791   1.86795
La         La      0.38166   0.26335   0.21329   2.00075
La         La      0.60121   0.80110   0.74207   1.86820
La         La      0.85848   0.73694   0.78648   2.00177
La         La      0.65304   0.69880   0.24190   1.86827
La         La      0.84499   0.76353   0.28640   2.00082
La         La      0.59349   0.30099   0.75782   1.86706
La         La      0.89495   0.23644   0.71318   2.00154
La         La      0.64431   0.25785   0.19918   1.86739
La         La      0.88117   0.21334   0.26396   2.00273
La         La      0.10110   0.74208   0.80105   1.86713
La         La      0.35790   0.78673   0.73690   2.00309
H          H       0.36652   0.29534   0.51924   0.12382
H          H       0.46881   0.29832   0.40995   0.12007
H          H       0.48322   0.11840   0.31832   0.11638
H          H       0.42131   0.03059   0.35539   0.10273
H          H       0.32472   0.02496   0.46522   0.10560
H          H       0.29159   0.10667   0.53817   0.12764
H          H       0.26642   0.49897   0.82562   0.12820
H          H       0.26384   0.60718   0.81673   0.11168
H          H       0.50767   0.61802   0.62368   0.12213
H          H       0.62752   0.54265   0.54529   0.09742
H          H       0.62720   0.43346   0.55368   0.09862
H          H       0.51350   0.40066   0.64234   0.12051
H          H       0.00039   0.44996   0.80134   0.12178
H          H       0.98148   0.55941   0.81670   0.12247
H          H       0.23181   0.60601   0.64485   0.12276
H          H       0.36069   0.54649   0.55701   0.10398
H          H       0.37952   0.43678   0.54320   0.10511
H          H       0.27040   0.38683   0.61885   0.11908
H          H       0.18122   0.70456   0.48106   0.12382
H          H       0.17764   0.70191   0.59030   0.12105
H          H       0.92087   0.88209   0.68163   0.11623
H          H       0.80763   0.96972   0.64470   0.10293
H          H       0.81455   0.97503   0.53502   0.10558
H          H       0.93599   0.89326   0.46210   0.12754
H          H       0.59103   0.50090   0.17453   0.12839
H          H       0.68726   0.39260   0.18354   0.11125
H          H       0.74897   0.38151   0.37637   0.12241
H          H       0.71602   0.45670   0.45455   0.09703
H          H       0.61569   0.56612   0.44606   0.09791
H          H       0.55750   0.59915   0.35759   0.11997
H          H       0.25133   0.55034   0.19875   0.12215
H          H       0.35742   0.44089   0.18324   0.12335
H          H       0.48193   0.39391   0.35527   0.12263
H          H       0.46365   0.45335   0.44301   0.10375
H          H       0.35977   0.56327   0.45658   0.10455
H          H       0.27634   0.61336   0.38099   0.11878
H          H       0.41263   0.01844   0.20426   0.12430
H          H       0.51798   0.90918   0.20153   0.12035
H          H       0.35201   0.81808   0.38189   0.11661
H          H       0.20179   0.85541   0.46948   0.10280
H          H       0.09959   0.96524   0.47481   0.10565
H          H       0.14869   0.03792   0.39293   0.12769
H          H       0.51569   0.32553   0.00074   0.12794
H          H       0.62124   0.31649   0.89250   0.11191
H          H       0.87590   0.12357   0.88141   0.12253
H          H       0.92093   0.04535   0.95662   0.09748
H          H       0.81197   0.05385   0.06601   0.09830
H          H       0.66522   0.14236   0.09909   0.12046
H          H       0.20055   0.30132   0.05040   0.12130
H          H       0.29078   0.31678   0.94085   0.12310
H          H       0.58756   0.14492   0.89357   0.12228
H          H       0.65743   0.05704   0.95277   0.10426
H          H       0.56719   0.04331   0.06270   0.10450
H          H       0.40819   0.11889   0.11308   0.11840
H          H       0.63608   0.98080   0.79533   0.12452
H          H       0.62976   0.08996   0.79819   0.12002
H          H       0.55256   0.18172   0.61833   0.11621
H          H       0.52718   0.14489   0.53061   0.10269
H          H       0.53984   0.03523   0.52501   0.10586
H          H       0.57942   0.96223   0.60666   0.12730
H          H       0.84154   0.67488  -0.00115   0.12780
H          H       0.83072   0.68351   0.10699   0.11278
H          H       0.88138   0.87641   0.11805   0.12197
H          H       0.92281   0.95479   0.04286   0.09669
H          H       0.93087   0.94649   0.93367   0.09838
H          H       0.90571   0.85797   0.90073   0.12004
H          H       0.55109   0.69877   0.95006   0.12228
H          H       0.54780   0.68342   0.05947   0.12259
H          H       0.62638   0.85533   0.10583   0.12235
H          H       0.66754   0.94296   0.04610   0.10403
H          H       0.67231   0.95662   0.93643   0.10517
H          H       0.63851   0.88101   0.88676   0.11886
H          H       0.86707   0.51855   0.29559   0.12369
H          H       0.96956   0.40923   0.29833   0.12037
H          H       0.98357   0.31799   0.11820   0.11625
H          H       0.92120   0.35527   0.03057   0.10291
H          H       0.82468   0.46513   0.02516   0.10513
H          H       0.79187   0.53787   0.10695   0.12786
H          H       0.76600   0.82560   0.49906   0.12763
H          H       0.76398   0.81674   0.60718   0.11149
H          H       0.00756   0.62381   0.61798   0.12187
H          H       0.12735   0.54534   0.54269   0.09787
H          H       0.12721   0.55375   0.43347   0.09872
H          H       0.01343   0.64232   0.40061   0.12052
H          H       0.50097   0.80117   0.44966   0.12163
H          H       0.48152   0.81660   0.55923   0.12297
H          H       0.73180   0.64482   0.60613   0.12170
H          H       0.86071   0.55694   0.54669   0.10443
H          H       0.87969   0.54307   0.43694   0.10453
H          H       0.77081   0.61873   0.38685   0.11917
H          H       0.68122   0.48112   0.70438   0.12433
H          H       0.67749   0.59031   0.70183   0.11966
H          H       0.42067   0.68146   0.88211   0.11618
H          H       0.30759   0.64436   0.96971   0.10217
H          H       0.31478   0.53465   0.97494   0.10491
H          H       0.43635   0.46185   0.89306   0.12719
H          H       0.09087   0.17462   0.50069   0.12798
H          H       0.18752   0.18356   0.39251   0.11161
H          H       0.24910   0.37633   0.38145   0.12305
H          H       0.21613   0.45451   0.45667   0.09783
H          H       0.11574   0.44606   0.56605   0.09752
H          H       0.05735   0.35767   0.59910   0.12058
H          H       0.75169   0.19862   0.54983   0.12101
H          H       0.85801   0.18328   0.44041   0.12304
H          H       0.98204   0.35538   0.39383   0.12152
H          H       0.96358   0.44313   0.45335   0.10457
H          H       0.85967   0.45655   0.56328   0.10491
H          H       0.77635   0.38089   0.61329   0.11983
H          H       0.91201   0.20452   0.01898   0.12366
H          H       0.01709   0.20169   0.90964   0.11994
H          H       0.85165   0.38189   0.81843   0.11690
H          H       0.70161   0.46968   0.85563   0.10263
H          H       0.59913   0.47510   0.96541   0.10535
H          H       0.64791   0.39332   0.03824   0.12746
H          H       0.01505   0.00114   0.32550   0.12763
H          H       0.12059   0.89284   0.31681   0.11178
H          H       0.37555   0.88144   0.12379   0.12261
H          H       0.42063   0.95662   0.04552   0.09770
H          H       0.31182   0.06605   0.05403   0.09867
H          H       0.16493   0.09913   0.14246   0.12061
H          H       0.70039   0.05025   0.30150   0.12190
H          H       0.79095   0.94078   0.31688   0.12272
H          H       0.08758   0.89381   0.14489   0.12237
H          H       0.15718   0.95312   0.05700   0.10452
H          H       0.06685   0.06302   0.04344   0.10533
H          H       0.90779   0.11330   0.11909   0.11921
H          H       0.13621   0.79534   0.98086   0.12392
H          H       0.12996   0.79814   0.09000   0.12039
H          H       0.05279   0.61825   0.18169   0.11648
H          H       0.02706   0.53070   0.14483   0.10327
H          H       0.03974   0.52514   0.03515   0.10485
H          H       0.07967   0.60675   0.96214   0.12735
H          H       0.34167  -0.00105   0.67473   0.12834
H          H       0.33020   0.10714   0.68354   0.11185
H          H       0.38113   0.11813   0.87638   0.12173
H          H       0.42269   0.04297   0.95475   0.09845
H          H       0.43086   0.93379   0.94648   0.09815
H          H       0.40578   0.90078   0.85796   0.12059
H          H       0.05127   0.94996   0.69876   0.12205
H          H       0.04770   0.05939   0.68348   0.12347
H          H       0.12627   0.10579   0.85534   0.12157
H          H       0.16747   0.04613   0.94300   0.10393
H          H       0.17243   0.93645   0.95668   0.10496
H          H       0.13882   0.88665   0.88107   0.11943
C          C       0.28994   0.21398   0.57799   0.56181
C          C       0.34767   0.20976   0.51105  -0.08306
C          C       0.38376   0.25831   0.48803  -0.08506
C          C       0.44014   0.26030   0.42658  -0.10437
C          C       0.45874   0.21431   0.38621  -0.06600
C          C       0.52086   0.22023   0.32194   0.62551
C          C       0.42205   0.16386   0.40682   0.04262
C          C       0.44118   0.11583   0.36629  -0.14163
C          C       0.40675   0.06677   0.38699  -0.08008
C          C       0.35220   0.06362   0.44936  -0.07863
C          C       0.33337   0.10897   0.49026  -0.14344
C          C       0.36670   0.16067   0.47077   0.05805
C          C       0.37101   0.40818   0.75122   0.59247
C          C       0.37828   0.47144   0.73988  -0.06595
C          C       0.31502   0.51399   0.78540  -0.08436
C          C       0.31306   0.57516   0.77991  -0.06722
C          C       0.37229   0.59600   0.72800  -0.07459
C          C       0.35589   0.66318   0.72475   0.59888
C          C       0.44177   0.55335   0.68059   0.06454
C          C       0.50880   0.57064   0.62808  -0.14719
C          C       0.57528   0.52822   0.58390  -0.07986
C          C       0.57596   0.46670   0.58899  -0.08104
C          C       0.51193   0.44809   0.63900  -0.14307
C          C       0.44476   0.48967   0.68676   0.05634
C          C       0.13496   0.37378   0.71378   0.61812
C          C       0.12402   0.43950   0.72015  -0.05044
C          C       0.04910   0.47231   0.76895  -0.10514
C          C       0.03796   0.53393   0.77726  -0.07716
C          C       0.09955   0.56341   0.73674  -0.08640
C          C       0.08496   0.62721   0.75253   0.60630
C          C       0.17584   0.53125   0.68429   0.06807
C          C       0.23935   0.55849   0.63910  -0.13963
C          C       0.31124   0.52490   0.58980  -0.07853
C          C       0.32292   0.46267   0.58239  -0.07906
C          C       0.26235   0.43460   0.62489  -0.14545
C          C       0.18821   0.46769   0.67653   0.04464
C          C       0.08214   0.78595   0.42229   0.56026
C          C       0.06871   0.79023   0.48919  -0.08398
C          C       0.13039   0.74170   0.51222  -0.08309
C          C       0.12758   0.73988   0.57358  -0.10616
C          C       0.05995   0.78605   0.61384  -0.06389
C          C       0.06356   0.78003   0.67812   0.62479
C          C       0.99328   0.83644   0.59323   0.04255
C          C       0.92392   0.88455   0.63374  -0.14357
C          C       0.86084   0.93351   0.61310  -0.08044
C          C       0.86516   0.93649   0.55081  -0.08046
C          C       0.93251   0.89106   0.50994  -0.14027
C          C      -0.00164   0.83944   0.52937   0.05765
C          C       0.53087   0.59169   0.24874   0.59333
C          C       0.58978   0.52838   0.26019  -0.06687
C          C       0.61444   0.48583   0.21473  -0.08387
C          C       0.66785   0.42458   0.22032  -0.06673
C          C       0.69585   0.40369   0.27225  -0.07370
C          C       0.74279   0.33650   0.27595   0.59781
C          C       0.67556   0.44637   0.31951   0.06439
C          C       0.70750   0.42896   0.37193  -0.14700
C          C       0.68786   0.47129   0.41601  -0.07929
C          C       0.63247   0.53289   0.41088  -0.08244
C          C       0.59974   0.55165   0.36093  -0.14116
C          C       0.62143   0.51011   0.31326   0.05562
C          C       0.22293   0.62641   0.28619   0.61891
C          C       0.28387   0.56070   0.27976  -0.04943
C          C       0.29022   0.52798   0.23103  -0.10576
C          C       0.34882   0.46630   0.22274  -0.07748
C          C       0.39928   0.43673   0.26327  -0.08541
C          C       0.46418   0.37289   0.24752   0.60434
C          C       0.39106   0.46880   0.31571   0.06824
C          C       0.43642   0.44149   0.36095  -0.13928
C          C       0.42562   0.47507   0.41016  -0.07754
C          C       0.36798   0.53739   0.41748  -0.07888
C          C       0.32201   0.56554   0.37495  -0.14496
C          C       0.33250   0.53244   0.32338   0.04243
C          C       0.25527   0.07759   0.28588   0.56191
C          C       0.30832   0.01055   0.29004  -0.08396
C          C       0.39289   0.98734   0.24143  -0.08517
C          C       0.45126   0.92590   0.23957  -0.10349
C          C       0.42393   0.88567   0.28577  -0.06688
C          C       0.49220   0.82141   0.27990   0.62560
C          C       0.33662   0.90643   0.33619   0.04233
C          C       0.30742   0.86605   0.38431  -0.14426
C          C       0.22368   0.88691   0.43327  -0.07859
C          C       0.16598   0.94928   0.43626  -0.08002
C          C       0.19278   0.99002   0.39082  -0.14311
C          C       0.27809   0.97039   0.33922   0.05960
C          C       0.52947   0.25118   0.09161   0.59561
C          C       0.60007   0.23979   0.02830  -0.06791
C          C       0.57931   0.28527   0.98574  -0.08319
C          C       0.63849   0.27971   0.92451  -0.06768
C          C       0.71856   0.22780   0.90362  -0.07486
C          C       0.76948   0.22417   0.83644   0.59756
C          C       0.74544   0.18047   0.94627   0.06535
C          C       0.82986   0.12803   0.92886  -0.14753
C          C       0.85422   0.08393   0.97120  -0.08009
C          C       0.79363   0.08908   0.03281  -0.08277
C          C       0.71086   0.13903   0.05158  -0.14115
C          C       0.68491   0.18670   0.01002   0.05572
C          C       0.25924   0.21372   0.12630   0.61715
C          C       0.31392   0.22015   0.06057  -0.04879
C          C       0.27163   0.26896   0.02790  -0.10517
C          C       0.32192   0.27731   0.96620  -0.07829
C          C       0.41306   0.23685   0.93658  -0.08545
C          C       0.46246   0.25263   0.87278   0.60570
C          C       0.45725   0.18436   0.96863   0.06868
C          C       0.54791   0.13916   0.94117  -0.13947
C          C       0.58649   0.08987   0.97459  -0.07823
C          C       0.53624   0.08248   0.03693  -0.07860
C          C       0.44764   0.12496   0.06522  -0.14386
C          C       0.40631   0.17657   0.03225   0.04148
C          C       0.61832   0.92215   0.71393   0.56366
C          C       0.60908   0.98907   0.70974  -0.08565
C          C       0.62225   0.01202   0.75829  -0.08515
C          C       0.61748   0.07339   0.76024  -0.10403
C          C       0.59573   0.11378   0.71425  -0.06675
C          C       0.59328   0.17806   0.72025   0.62639
C          C       0.57946   0.09325   0.66384   0.04304
C          C       0.55816   0.13382   0.61581  -0.14342
C          C       0.54422   0.11326   0.56677  -0.07905
C          C       0.55170   0.05098   0.56364  -0.08073
C          C       0.57362   0.01005   0.60900  -0.14196
C          C       0.58776   0.02938   0.66068   0.06078
C          C       0.87201   0.74896   0.90820   0.59324
C          C       0.86782   0.76048   0.97141  -0.06652
C          C       0.85011   0.71499   0.01392  -0.08238
C          C       0.84287   0.72040   0.07507  -0.06911
C          C       0.85018   0.77228   0.09592  -0.07298
C          C       0.83035   0.77576   0.16308   0.59857
C          C       0.87222   0.81965   0.05332   0.06270
C          C       0.88688   0.87204   0.07068  -0.14610
C          C       0.90916   0.91624   0.02837  -0.07955
C          C       0.91485   0.91121   0.96686  -0.08141
C          C       0.90083   0.86126   0.94815  -0.14134
C          C       0.88136   0.81351   0.98965   0.05547
C          C       0.59939   0.78608   0.87369   0.61931
C          C       0.59429   0.77964   0.93946  -0.04668
C          C       0.56774   0.73104   0.97232  -0.10833
C          C       0.56481   0.72283   0.03397  -0.07681
C          C       0.58601   0.76329   0.06343  -0.08541
C          C       0.58755   0.74741   0.12718   0.60369
C          C       0.60981   0.81571   0.03123   0.06651
C          C       0.62814   0.86096   0.05832  -0.13806
C          C       0.65079   0.91015   0.02463  -0.07829
C          C       0.65493   0.91750   0.96241  -0.07941
C          C       0.63683   0.87496   0.93448  -0.14500
C          C       0.61456   0.82335   0.96765   0.04291
C          C       0.79133   0.57764   0.21399   0.56347
C          C       0.84849   0.51060   0.20988  -0.08302
C          C       0.88441   0.48744   0.25847  -0.08464
C          C       0.94082   0.42599   0.26035  -0.10548
C          C       0.95951   0.38579   0.21419  -0.06575
C          C       0.02123   0.32146   0.22019   0.62584
C          C       0.92266   0.40645   0.16380   0.04350
C          C       0.94155   0.36598   0.11574  -0.14347
C          C       0.90692   0.38679   0.06676  -0.07887
C          C       0.85239   0.44918   0.06372  -0.07976
C          C       0.83378   0.48998   0.10911  -0.14208
C          C       0.86734   0.47041   0.16073   0.05817
C          C       0.87051   0.75118   0.40820   0.59473
C          C       0.87793   0.73986   0.47143  -0.06763
C          C       0.81472   0.78538   0.51401  -0.08238
C          C       0.81305   0.77990   0.57515  -0.06832
C          C       0.87244   0.72801   0.59591  -0.07253
C          C       0.85644   0.72462   0.66305   0.59811
C          C       0.94176   0.68063   0.55324   0.06383
C          C       0.00877   0.62815   0.57058  -0.14653
C          C       0.07523   0.58397   0.52820  -0.07972
C          C       0.07594   0.58907   0.46668  -0.08356
C          C       0.01187   0.63904   0.44803  -0.14143
C          C       0.94461   0.68680   0.48959   0.05520
C          C       0.63602   0.71374   0.37364   0.61874
C          C       0.62464   0.72013   0.43941  -0.04942
C          C       0.54950   0.76884   0.47217  -0.10691
C          C       0.53805   0.77713   0.53385  -0.07713
C          C       0.59960   0.73663   0.56340  -0.08483
C          C       0.58505   0.75249   0.62718   0.60593
C          C       0.67596   0.68418   0.53130   0.06611
C          C       0.73940   0.63902   0.55860  -0.13693
C          C       0.81132   0.58971   0.52506  -0.07870
C          C       0.82311   0.58228   0.46279  -0.07757
C          C       0.76269   0.62479   0.43464  -0.14713
C          C       0.68855   0.67644   0.46770   0.04445
C          C       0.58240   0.42211   0.78591   0.56280
C          C       0.56885   0.48906   0.79015  -0.08233
C          C       0.63040   0.51218   0.74160  -0.08543
C          C       0.62745   0.57359   0.73982  -0.10346
C          C       0.55975   0.61385   0.78598  -0.06665
C          C       0.56304   0.67824   0.78000   0.62733
C          C       0.49324   0.59312   0.83638   0.04314
C          C       0.42383   0.63355   0.88453  -0.14486
C          C       0.36087   0.61281   0.93348  -0.07886
C          C       0.36531   0.55051   0.93642  -0.07848
C          C       0.43271   0.50971   0.89094  -0.14215
C          C       0.49852   0.52923   0.83936   0.05866
C          C       0.03059   0.24881   0.59163   0.59445
C          C       0.08970   0.26024   0.52834  -0.06483
C          C       0.11432   0.21482   0.48574  -0.08374
C          C       0.16786   0.22037   0.42451  -0.06743
C          C       0.19588   0.27228   0.40363  -0.07465
C          C       0.24310   0.27585   0.33643   0.59679
C          C       0.17552   0.31955   0.44630   0.06468
C          C       0.20749   0.37194   0.42889  -0.14784
C          C       0.18793   0.41600   0.47123  -0.08006
C          C       0.13251   0.41088   0.53283  -0.08125
C          C       0.09967   0.36098   0.55160  -0.14235
C          C       0.12137   0.31331   0.51006   0.05443
C          C       0.72264   0.28623   0.62617   0.61644
C          C       0.78384   0.27971   0.56044  -0.04888
C          C       0.79050   0.23097   0.52760  -0.10468
C          C       0.84931   0.22273   0.46595  -0.07912
C          C       0.89981   0.26328   0.43652  -0.08439
C          C       0.96501   0.24747   0.37277   0.60407
C          C       0.89137   0.31570   0.46870   0.06754
C          C       0.93662   0.36099   0.44144  -0.13703
C          C       0.92569   0.41020   0.47505  -0.08031
C          C       0.86801   0.41744   0.53738  -0.07722
C          C       0.82205   0.37488   0.56547  -0.14714
C          C       0.83260   0.32332   0.53232   0.04382
C          C       0.75398   0.28604   0.07804   0.56191
C          C       0.80739   0.29026   0.01105  -0.08263
C          C       0.89207   0.24166   0.98792  -0.08352
C          C       0.95040   0.23973   0.92646  -0.10568
C          C       0.92306   0.28585   0.88619  -0.06479
C          C       0.99118   0.27983   0.82193   0.62613
C          C       0.83587   0.33632   0.90686   0.04222
C          C       0.80694   0.38442   0.86639  -0.14324
C          C       0.72329   0.43345   0.88717  -0.07972
C          C       0.66547   0.43650   0.94952  -0.08012
C          C       0.69208   0.39109   0.99034  -0.14142
C          C       0.77729   0.33942   0.97081   0.05731
C          C       0.02946   0.09177   0.25126   0.59280
C          C       0.09984   0.02846   0.23986  -0.06666
C          C       0.07882   0.98598   0.28536  -0.08290
C          C       0.13788   0.92474   0.27992  -0.06855
C          C       0.21802   0.90379   0.22804  -0.07252
C          C       0.26898   0.83663   0.22460   0.59769
C          C       0.24507   0.94634   0.18065   0.06263
C          C       0.32948   0.92888   0.12820  -0.14580
C          C       0.35391   0.97121   0.08409  -0.08021
C          C       0.29340   0.03283   0.08921  -0.08335
C          C       0.21061   0.05163   0.13914  -0.14174
C          C       0.18465   0.01010   0.18681   0.05542
C          C       0.75880   0.12630   0.21392   0.61770
C          C       0.81367   0.06061   0.22034  -0.04904
C          C       0.77149   0.02786   0.26912  -0.10771
C          C       0.82185   0.96619   0.27737  -0.07617
C          C       0.91285   0.93663   0.23675  -0.08589
C          C       0.96200   0.87283   0.25253   0.60620
C          C       0.95704   0.96875   0.18434   0.06788
C          C       0.04775   0.94138   0.13913  -0.13741
C          C       0.08624   0.97487   0.08986  -0.07975
C          C       0.03590   0.03721   0.08257  -0.07844
C          C       0.94732   0.06545   0.12511  -0.14713
C          C       0.90605   0.03238   0.17668   0.04485
C          C       0.11835   0.71402   0.92216   0.56044
C          C       0.10933   0.70971   0.98906  -0.08172
C          C       0.12245   0.75826   0.01205  -0.08533
C          C       0.11777   0.76017   0.07341  -0.10503
C          C       0.09618   0.71413   0.11378  -0.06511
C          C       0.09361   0.72017   0.17810   0.62754
C          C       0.07987   0.66375   0.09322   0.04120
C          C       0.05843   0.61575   0.13378  -0.14400
C          C       0.04431   0.56679   0.11318  -0.08012
C          C       0.05180   0.56368   0.05089  -0.07823
C          C       0.07385   0.60902   0.00998  -0.14131
C          C       0.08813   0.66062   0.02935   0.05820
C          C       0.37226   0.90822   0.74875   0.59162
C          C       0.36789   0.97147   0.76035  -0.06448
C          C       0.35008   0.01403   0.71490  -0.08406
C          C       0.34265   0.07521   0.72037  -0.06832
C          C       0.34992   0.09608   0.77226  -0.07265
C          C       0.32990   0.16330   0.77579   0.59751
C          C       0.37212   0.05340   0.81958   0.06331
C          C       0.38670   0.07075   0.87201  -0.14606
C          C       0.40904   0.02846   0.91620  -0.08027
C          C       0.41487   0.96694   0.91116  -0.08293
C          C       0.40085   0.94822   0.86120  -0.14233
C          C       0.38133   0.98970   0.81343   0.05506
C          C       0.09835   0.87377   0.78621   0.61925
C          C       0.09383   0.93944   0.77983  -0.04992
C          C       0.06765   0.97228   0.73112  -0.10679
C          C       0.06478   0.03390   0.72288  -0.07794
C          C       0.08600   0.06331   0.76336  -0.08438
C          C       0.08750   0.12705   0.74748   0.60641
C          C       0.10986   0.03110   0.81575   0.06898
C          C       0.12816   0.05826   0.86097  -0.13860
C          C       0.15082   0.02461   0.91018  -0.07895
C          C       0.15509   0.96238   0.91752  -0.07847
C          C       0.13699   0.93439   0.87501  -0.14636
C          C       0.11448   0.96754   0.82344   0.04330
O          O       0.28178   0.26021   0.60819  -0.62121
O          O       0.24733   0.17447   0.60517  -0.59307
O          O       0.48784   0.22265   0.27623  -0.71335
O          O       0.60340   0.22537   0.31371  -0.57740
O          O       0.44501   0.36053   0.72574  -0.69310
O          O       0.29207   0.40012   0.78564  -0.58107
O          O       0.28600   0.69801   0.76879  -0.70601
O          O       0.40738   0.68882   0.68159  -0.58340
O          O       0.21266   0.33141   0.71962  -0.71529
O          O       0.06893   0.35999   0.70347  -0.53159
O          O       0.15199   0.65147   0.73131  -0.56353
O          O       0.00237   0.65723   0.79184  -0.70983
O          O       0.15116   0.74010   0.39185  -0.62057
O          O       0.02635   0.82522   0.39543  -0.59370
O          O       0.98706   0.77744   0.72363  -0.71303
O          O       0.14294   0.77477   0.68653  -0.57727
O          O       0.53190   0.63922   0.27420  -0.69362
O          O       0.47846   0.59986   0.21421  -0.58100
O          O       0.75346   0.30160   0.23149  -0.70636
O          O       0.77469   0.31090   0.31993  -0.58322
O          O       0.26420   0.66867   0.28035  -0.71580
O          O       0.13279   0.64023   0.29651  -0.53194
O          O       0.53430   0.34858   0.26872  -0.56429
O          O       0.45075   0.34293   0.20830  -0.70755
O          O       0.29373   0.10774   0.23977  -0.62020
O          O       0.17318   0.10490   0.32548  -0.59509
O          O       0.46191   0.77558   0.27736  -0.71379
O          O       0.57987   0.81325   0.27479  -0.57693
O          O       0.55586   0.22580   0.13922  -0.69428
O          O       0.44239   0.28554   0.09974  -0.58236
O          O       0.73543   0.26842   0.80139  -0.70665
O          O       0.84584   0.18042   0.81095  -0.58141
O          O       0.29441   0.21981   0.16861  -0.71350
O          O       0.17962   0.20314   0.14014  -0.53153
O          O       0.55388   0.23145   0.84860  -0.56328
O          O       0.41005   0.29184   0.84266  -0.70986
O          O       0.64119   0.89178   0.75987  -0.62242
O          O       0.60201   0.89523   0.67464  -0.59379
O          O       0.51428   0.22359   0.72271  -0.71323
O          O       0.66746   0.18646   0.72541  -0.57795
O          O       0.92093   0.77422   0.86060  -0.69399
O          O       0.82754   0.71455   0.90013  -0.58078
O          O       0.80543   0.73144   0.19784  -0.70669
O          O       0.83751   0.81936   0.18875  -0.58310
O          O       0.68306   0.78036   0.83149  -0.71483
O          O       0.52314   0.79655   0.85976  -0.53321
O          O       0.63322   0.76875   0.15143  -0.56312
O          O       0.54476   0.70791   0.15716  -0.70872
O          O       0.78365   0.60798   0.25999  -0.62188
O          O       0.74877   0.60475   0.17443  -0.59545
O          O       0.98716   0.27619   0.22300  -0.71261
O          O       0.10407   0.31273   0.22512  -0.57777
O          O       0.94434   0.72557   0.36052  -0.69459
O          O       0.79174   0.78578   0.40012  -0.58097
O          O       0.78673   0.76869   0.69792  -0.70523
O          O       0.90802   0.68139   0.68862  -0.58375
O          O       0.71357   0.71988   0.33138  -0.71452
O          O       0.57048   0.70296   0.35976  -0.53103
O          O       0.65240   0.73159   0.65128  -0.56474
O          O       0.50223   0.79154   0.65726  -0.70889
O          O       0.65035   0.39203   0.73947  -0.62087
O          O       0.52800   0.39476   0.82567  -0.59481
O          O       0.48641   0.72370   0.77757  -0.71220
O          O       0.64236   0.68679   0.77471  -0.57971
O          O       0.03095   0.27443   0.63931  -0.69366
O          O       0.97846   0.21414   0.59971  -0.58262
O          O       0.25359   0.23143   0.30152  -0.70562
O          O       0.27548   0.31962   0.31084  -0.58120
O          O       0.76395   0.28050   0.66843  -0.71334
O          O       0.63246   0.29659   0.64005  -0.53164
O          O       0.03499   0.26876   0.34847  -0.56287
O          O       0.95210   0.20799   0.34282  -0.70978
O          O       0.79226   0.23980   0.10815  -0.62145
O          O       0.67184   0.32559   0.10533  -0.59353
O          O       0.96060   0.27709   0.77631  -0.71266
O          O       0.07884   0.27483   0.81366  -0.57865
O          O       0.05579   0.13935   0.22576  -0.69299
O          O       0.94254   0.09987   0.28585  -0.58142
O          O       0.23437   0.80172   0.26868  -0.70512
O          O       0.34593   0.81111   0.18116  -0.58382
O          O       0.79374   0.16873   0.22005  -0.71396
O          O       0.67929   0.14002   0.20324  -0.53218
O          O       0.05334   0.84850   0.23139  -0.56470
O          O       0.90931   0.84290   0.29180  -0.70932
O          O       0.13945   0.76057   0.89214  -0.62095
O          O       0.10376   0.67424   0.89484  -0.59316
O          O       0.01438   0.72278   0.22351  -0.71353
O          O       0.16774   0.72529   0.18663  -0.57902
O          O       0.42011   0.86056   0.77453  -0.69425
O          O       0.32872   0.90012   0.71378  -0.57960
O          O       0.30477   0.19813   0.73154  -0.70493
O          O       0.33718   0.18894   0.81937  -0.58371
O          O       0.18203   0.83146   0.78019  -0.71633
O          O       0.02198   0.85997   0.79676  -0.53196
O          O       0.13380   0.15118   0.76842  -0.56436
O          O       0.04390   0.15711   0.70837  -0.70943

