data_crystal

_audit_creation_method 'AiiDA-DDEC plugin'

_cell_length_a        17.88168
_cell_length_b        20.67482
_cell_length_c        27.52619

_cell_angle_alpha     81.94902
_cell_angle_beta     72.85298
_cell_angle_gamma     84.38428

_symmetry_space_group_name_Hall 'P 1'
_symmetry_space_group_name_H-M  'P 1'

loop_
_symmetry_equiv_pos_as_xyz
 'x,y,z'

loop_
_atom_site_label
_atom_site_type_symbol
_atom_site_fract_x
_atom_site_fract_y
_atom_site_fract_z
_atom_site_charge
Zn         Zn      0.08222   0.72946   0.77035   0.77892
Zn         Zn      0.67257   0.06919   0.53005   0.77660
Zn         Zn      0.61664   0.25566   0.27501   0.78031
Zn         Zn      0.05469   0.21258   0.78007   0.78753
Zn         Zn      0.36994   0.22313   0.92956   0.79044
Zn         Zn      0.20314   0.59859   0.02352   0.77322
Zn         Zn      0.89980   0.72612   0.41725   0.86563
Zn         Zn      0.58185   0.73926   0.27970   0.78934
Zn         Zn      0.91778   0.27054   0.22966   0.77904
Zn         Zn      0.32743   0.93080   0.46995   0.77665
Zn         Zn      0.38336   0.74433   0.72499   0.78034
Zn         Zn      0.94531   0.78742   0.21994   0.78751
Zn         Zn      0.63006   0.77686   0.07044   0.79038
Zn         Zn      0.79686   0.40141   0.97648   0.77328
Zn         Zn      0.10020   0.27387   0.58276   0.86555
Zn         Zn      0.41815   0.26073   0.72030   0.78926
H          H       0.90192   0.40819   0.12263   0.15471
H          H       0.68358   0.51284   0.18923   0.13913
H          H       0.89415   0.61781   0.12254   0.14921
H          H       0.79261   0.35341   0.09797   0.14582
H          H       0.71491   0.24747   0.15878   0.13269
H          H       0.69263   0.39882   0.25117   0.12385
H          H       0.99568   0.42913   0.04837   0.14193
H          H       0.15053   0.46442   0.00909   0.13456
H          H       0.02698   0.59594   0.11355   0.12349
H          H       0.69699   0.78780   0.17064   0.12588
H          H       0.80217   0.70226   0.11193   0.14691
H          H       0.65761   0.59656   0.24533   0.12426
H          H       0.13307   0.62637   0.21660   0.15545
H          H       0.20679   0.67718   0.34065   0.14256
H          H       0.37319   0.67604   0.19043   0.14423
H          H       0.07188   0.73445   0.34996   0.11740
H          H       0.91522   0.58634   0.37064   0.14046
H          H       0.05222   0.55531   0.29605   0.14825
H          H       0.15801   0.63825   0.13659   0.13392
H          H       0.37955   0.60291   0.03242   0.14123
H          H       0.40262   0.62593   0.12443   0.13510
H          H       0.46015   0.69225   0.22368   0.11664
H          H       0.28266   0.73180   0.36037   0.13680
H          H       0.42499   0.76704   0.36508   0.14548
H          H       0.77060   0.79631   0.86460   0.15780
H          H       0.54493   0.74017   0.86293   0.15378
H          H       0.74498   0.72458   0.73066   0.14878
H          H       0.90086   0.72469   0.83076   0.13045
H          H       0.84408   0.80278   0.69370   0.14023
H          H       0.00633   0.79004   0.67567   0.13005
H          H       0.49332   0.78425   0.78488   0.12144
H          H       0.66081   0.63136   0.73011   0.13900
H          H       0.53039   0.63151   0.69261   0.14480
H          H       0.70594   0.73805   0.95708   0.12597
H          H       0.51300   0.83958   0.91377   0.14328
H          H       0.48975   0.84003   0.01807   0.12765
H          H       0.15398   0.98674   0.68830   0.13849
H          H       0.36490   0.09045   0.61952   0.14564
H          H       0.37047   0.88114   0.61904   0.15917
H          H       0.15347   0.87348   0.74670   0.12756
H          H       0.26555   0.82747   0.59493   0.14947
H          H       0.18374   0.72157   0.65377   0.13387
H          H       0.13126   0.06980   0.74497   0.12798
H          H       0.16760   0.26120   0.67028   0.12521
H          H       0.27084   0.17578   0.60970   0.15012
H          H       0.49697   0.06676   0.61167   0.12247
H          H       0.46441   0.90226   0.54395   0.14196
H          H       0.62106   0.93354   0.50889   0.13295
H          H       0.67278   0.16128   0.84784   0.13572
H          H       0.83730   0.15056   0.69816   0.14012
H          H       0.59470   0.10736   0.72633   0.15634
H          H       0.50340   0.05116   0.80159   0.14452
H          H       0.37038   0.08936   0.87631   0.13440
H          H       0.54550   0.21934   0.86043   0.11488
H          H       0.62076   0.10617   0.64712   0.13551
H          H       0.86542   0.10360   0.63331   0.12946
H          H       0.84395   0.07376   0.54365   0.13914
H          H       0.92608   0.16734   0.72858   0.11636
H          H       0.90136   0.23579   0.87078   0.14888
H          H       0.75574   0.20599   0.86838   0.13506
H          H       0.72707   0.88835   0.20984   0.11152
H          H       0.80505   0.98711   0.17712   0.10569
H          H       0.74664   0.09596   0.20401   0.11521
H          H       0.53388   0.00791   0.29303   0.10973
H          H       0.58414   0.51422   0.39757   0.11157
H          H       0.65007   0.45753   0.46189   0.10593
H          H       0.74733   0.51674   0.48638   0.11611
H          H       0.69608   0.68977   0.39261   0.12082
H          H       0.42001   0.61088   0.85627   0.10535
H          H       0.50503   0.54982   0.78550   0.09501
H          H       0.51396   0.42760   0.79733   0.10358
H          H       0.33920   0.42918   0.94319   0.12095
H          H       0.02853   0.82510   0.04818   0.10962
H          H       0.96871   0.91301   0.99672   0.09078
H          H       0.98238   0.90368   0.90475   0.11410
H          H       0.11128   0.71940   0.91702   0.10626
H          H       0.91073   0.11091   0.38293   0.10487
H          H       0.02165   0.06500   0.31426   0.10460
H          H       0.04754   0.94386   0.31684   0.10148
H          H       0.84735   0.91649   0.44899   0.13015
H          H       0.51854   0.30369   0.56672   0.10795
H          H       0.48973   0.40848   0.51630   0.09488
H          H       0.52281   0.41619   0.42083   0.10876
H          H       0.61097   0.21630   0.42698   0.10610
H          H       0.19166   0.36189   0.70891   0.11027
H          H       0.26999   0.46039   0.67558   0.09975
H          H       0.21316   0.56893   0.70351   0.11376
H          H       0.00131   0.48145   0.79485   0.10644
H          H       0.17318   0.17469   0.89411   0.11643
H          H       0.06221   0.99659   0.90459   0.11055
H          H       0.12135   0.94683   0.97376   0.10512
H          H       0.21247   0.01129   0.00007   0.11293
H          H       0.09809   0.59180   0.87738   0.15452
H          H       0.31643   0.48715   0.81078   0.13911
H          H       0.10585   0.38218   0.87746   0.14946
H          H       0.20739   0.64659   0.90204   0.14587
H          H       0.28510   0.75252   0.84122   0.13249
H          H       0.30737   0.60117   0.74883   0.12392
H          H       0.00432   0.57087   0.95163   0.14187
H          H       0.84947   0.53557   0.99091   0.13456
H          H       0.97302   0.40405   0.88645   0.12363
H          H       0.30301   0.21219   0.82936   0.12621
H          H       0.19784   0.29773   0.88808   0.14694
H          H       0.34239   0.40343   0.75467   0.12407
H          H       0.86693   0.37363   0.78341   0.15542
H          H       0.79321   0.32281   0.65935   0.14250
H          H       0.62681   0.32395   0.80957   0.14422
H          H       0.92812   0.26555   0.65005   0.11755
H          H       0.08478   0.41366   0.62937   0.14032
H          H       0.94778   0.44469   0.70395   0.14811
H          H       0.84199   0.36174   0.86341   0.13390
H          H       0.62046   0.39709   0.96759   0.14130
H          H       0.59738   0.37406   0.87557   0.13500
H          H       0.53985   0.30774   0.77632   0.11657
H          H       0.71734   0.26819   0.63964   0.13676
H          H       0.57501   0.23295   0.63493   0.14552
H          H       0.22940   0.20368   0.13540   0.15777
H          H       0.45507   0.25982   0.13707   0.15376
H          H       0.25502   0.27541   0.26935   0.14871
H          H       0.09914   0.27531   0.16924   0.13024
H          H       0.15592   0.19721   0.30631   0.14037
H          H       0.99367   0.20995   0.32434   0.13015
H          H       0.50668   0.21574   0.21512   0.12157
H          H       0.33920   0.36864   0.26990   0.13887
H          H       0.46961   0.36848   0.30739   0.14474
H          H       0.29406   0.26194   0.04292   0.12572
H          H       0.48700   0.16041   0.08624   0.14340
H          H       0.51025   0.15996   0.98193   0.12774
H          H       0.84602   0.01326   0.31170   0.13853
H          H       0.63510   0.90955   0.38048   0.14583
H          H       0.62954   0.11885   0.38096   0.15883
H          H       0.84653   0.12651   0.25330   0.12758
H          H       0.73445   0.17252   0.40507   0.14958
H          H       0.81626   0.27843   0.34623   0.13365
H          H       0.86875   0.93019   0.25503   0.12786
H          H       0.83240   0.73880   0.32972   0.12537
H          H       0.72916   0.82421   0.39030   0.15018
H          H       0.50303   0.93324   0.38833   0.12256
H          H       0.53559   0.09773   0.45605   0.14194
H          H       0.37894   0.06645   0.49112   0.13293
H          H       0.32722   0.83871   0.15217   0.13558
H          H       0.16270   0.84943   0.30184   0.14011
H          H       0.40530   0.89264   0.27368   0.15623
H          H       0.49660   0.94883   0.19842   0.14442
H          H       0.62962   0.91063   0.12370   0.13424
H          H       0.45450   0.78066   0.13957   0.11499
H          H       0.37924   0.89382   0.35289   0.13551
H          H       0.13458   0.89639   0.36670   0.12945
H          H       0.15606   0.92623   0.45635   0.13911
H          H       0.07392   0.83266   0.27142   0.11635
H          H       0.09864   0.76421   0.12922   0.14882
H          H       0.24426   0.79400   0.13162   0.13512
H          H       0.27293   0.11164   0.79016   0.11134
H          H       0.19495   0.01288   0.82288   0.10581
H          H       0.25336   0.90404   0.79599   0.11546
H          H       0.46612   0.99208   0.70697   0.10970
H          H       0.41586   0.48577   0.60244   0.11153
H          H       0.34993   0.54247   0.53811   0.10545
H          H       0.25267   0.48326   0.51363   0.11594
H          H       0.30392   0.31022   0.60739   0.12110
H          H       0.57999   0.38912   0.14373   0.10557
H          H       0.49497   0.45017   0.21451   0.09517
H          H       0.48604   0.57239   0.20267   0.10358
H          H       0.66080   0.57081   0.05681   0.12078
H          H       0.97148   0.17489   0.95183   0.10952
H          H       0.03129   0.08699   0.00329   0.09087
H          H       0.01762   0.09633   0.09526   0.11439
H          H       0.88872   0.28060   0.08298   0.10611
H          H       0.08928   0.88908   0.61707   0.10516
H          H       0.97835   0.93499   0.68574   0.10495
H          H       0.95246   0.05614   0.68316   0.10143
H          H       0.15266   0.08350   0.55101   0.12998
H          H       0.48146   0.69631   0.43328   0.10778
H          H       0.51027   0.59151   0.48371   0.09506
H          H       0.47720   0.58380   0.57917   0.10894
H          H       0.38903   0.78369   0.57302   0.10586
H          H       0.80834   0.63810   0.29109   0.11012
H          H       0.73002   0.53960   0.32442   0.09971
H          H       0.78684   0.43107   0.29649   0.11399
H          H      -0.00131   0.51855   0.20515   0.10644
H          H       0.82682   0.82531   0.10589   0.11668
H          H       0.93779   0.00340   0.09542   0.11050
H          H       0.87865   0.05316   0.02624   0.10488
H          H       0.78753   0.98870  -0.00006   0.11271
C          C       0.86905   0.45457   0.13016  -0.24156
C          C       0.78954   0.45530   0.15674   0.20712
C          C       0.74636   0.51306   0.17086  -0.25307
C          C       0.78519   0.57125   0.15870   0.21066
C          C       0.86473   0.57226   0.13149  -0.26221
C          C       0.90579   0.51362   0.11700   0.20187
C          C       0.76187   0.34632   0.13845  -0.07985
C          C       0.72228   0.29489   0.16852  -0.02656
C          C       0.70862   0.37196   0.21816   0.10258
C          C       0.02570   0.46764   0.05613  -0.10530
C          C       0.10149   0.48537   0.03711  -0.03522
C          C       0.03990   0.55613   0.08990   0.10287
C          C       0.70470   0.73509   0.17699  -0.01922
C          C       0.75814   0.69329   0.14827  -0.07956
C          C       0.68109   0.63639   0.21646   0.09489
C          C       0.18032   0.63907   0.23043  -0.26989
C          C       0.16431   0.65110   0.28103   0.20369
C          C       0.22116   0.67104   0.30039  -0.28357
C          C       0.29617   0.68107   0.26739   0.20908
C          C       0.31468   0.66881   0.21626  -0.28100
C          C       0.25672   0.64724   0.19859   0.20755
C          C       0.04993   0.68842   0.34719   0.08356
C          C       0.96878   0.61179   0.35544  -0.00298
C          C       0.03613   0.59569   0.31889  -0.08286
C          C       0.22094   0.62978   0.12116   0.09753
C          C       0.33779   0.61255   0.06851  -0.02138
C          C       0.34956   0.62417   0.11335  -0.11172
C          C       0.43176   0.70789   0.26121   0.09252
C          C       0.34007   0.72799   0.33330  -0.11461
C          C       0.41077   0.74566   0.33510  -0.01252
C          C       0.73459   0.77608   0.84543  -0.26721
C          C       0.65441   0.76964   0.86894   0.20267
C          C       0.60636   0.74781   0.84349  -0.26506
C          C       0.63963   0.73274   0.79339   0.20724
C          C       0.71967   0.73722   0.76939  -0.26237
C          C       0.76661   0.75862   0.79579   0.20940
C          C       0.90818   0.74586   0.79148   0.11704
C          C       0.88021   0.78488   0.71862  -0.12060
C          C       0.95980   0.77874   0.71056  -0.01912
C          C       0.51917   0.74139   0.76616   0.09808
C          C       0.60742   0.66239   0.73522  -0.12050
C          C       0.54345   0.66263   0.71733  -0.00942
C          C       0.65046   0.76578   0.96031   0.10938
C          C       0.54800   0.81819   0.93861  -0.10826
C          C       0.53765   0.81803   0.98997  -0.01736
C          C       0.21658   0.98648   0.66932  -0.25703
C          C       0.25583   0.04443   0.65679   0.20426
C          C       0.33503   0.04508   0.62882  -0.25525
C          C       0.37532   0.98623   0.61409   0.20916
C          C       0.33799   0.92747   0.62731  -0.23345
C          C       0.25872   0.92858   0.65442   0.20513
C          C       0.17276   0.84641   0.71377   0.09826
C          C       0.23221   0.81989   0.63489  -0.07379
C          C       0.19006   0.76909   0.66383  -0.03749
C          C       0.15338   0.10967   0.71576   0.09893
C          C       0.17478   0.20835   0.67581  -0.03658
C          C       0.22749   0.16663   0.64633  -0.08361
C          C       0.50976   0.02680   0.58817   0.10013
C          C       0.49508   0.93926   0.55334  -0.08710
C          C       0.57156   0.95561   0.53589  -0.02965
C          C       0.62770   0.13442   0.78958   0.20353
C          C       0.68640   0.15293   0.80808  -0.28607
C          C       0.76200   0.15900   0.77494   0.20983
C          C       0.77898   0.14469   0.72443  -0.28737
C          C       0.71961   0.12372   0.70772   0.21157
C          C       0.64277   0.11930   0.73977  -0.26776
C          C       0.49269   0.09001   0.82575  -0.08990
C          C       0.42739   0.10975   0.86246  -0.01616
C          C       0.51791   0.17653   0.85705   0.07552
C          C       0.68390   0.09917   0.63167   0.10462
C          C       0.81233   0.09845   0.62335  -0.11987
C          C       0.80127   0.08336   0.57934  -0.01489
C          C       0.89992   0.18180   0.76665   0.09173
C          C       0.88452   0.21670   0.84087  -0.00675
C          C       0.81202   0.20187   0.84015  -0.11525
C          C       0.57815   0.88187   0.27282   0.55736
C          C       0.62508   0.94156   0.25303  -0.05938
C          C       0.70203   0.93624   0.22044  -0.09842
C          C       0.74573   0.99150   0.20245  -0.10043
C          C       0.71342   0.05236   0.21739  -0.09523
C          C       0.63712   0.05825   0.25036  -0.04924
C          C       0.60299   0.12285   0.26866   0.54926
C          C       0.59307   0.00286   0.26757  -0.13070
C          C       0.60076   0.63861   0.35080   0.55279
C          C       0.63531   0.60546   0.39202  -0.03098
C          C       0.62269   0.53984   0.41147  -0.09009
C          C       0.66082   0.50834   0.44671  -0.09375
C          C       0.71423   0.54136   0.46098  -0.09133
C          C       0.72748   0.60703   0.44130  -0.04195
C          C       0.68622   0.63906   0.40801  -0.11041
C          C       0.79132   0.64110   0.45019   0.55553
C          C       0.32551   0.56216   0.94631   0.55175
C          C       0.37553   0.52400   0.90435  -0.02927
C          C       0.42264   0.55767   0.85972  -0.09660
C          C       0.47056   0.52321   0.82061  -0.09781
C          C       0.47499   0.45482   0.82698  -0.11010
C          C       0.42828   0.42051   0.87155  -0.05188
C          C       0.37691   0.45555   0.90930  -0.11327
C          C       0.43592   0.34700   0.87938   0.57524
C          C       0.11361   0.71416   0.01479   0.55851
C          C       0.07563   0.76731   0.98547  -0.04931
C          C       0.03438   0.82191   0.00806  -0.09122
C          C       0.00075   0.87082   0.97912  -0.09495
C          C       0.00780   0.86577   0.92781  -0.09610
C          C       0.04736   0.81058   0.90535  -0.04413
C          C       0.08073   0.76194   0.93450  -0.11810
C          C       0.05490   0.80264   0.85075   0.55561
C          C       0.80490   0.04650   0.45850   0.54271
C          C       0.87241   0.01679   0.41958  -0.03068
C          C       0.92272   0.05838   0.38207  -0.09200
C          C       0.98471   0.03250   0.34444  -0.09755
C          C      -0.00085   0.96475   0.34570  -0.10428
C          C       0.95094   0.92265   0.38426  -0.05633
C          C       0.88631   0.94898   0.42024  -0.10230
C          C       0.96916   0.85020   0.38657   0.58051
C          C       0.58971   0.18987   0.52769   0.56173
C          C       0.56839   0.25337   0.49989  -0.04888
C          C       0.53350   0.30788   0.52514  -0.08594
C          C       0.51747   0.36646   0.49669  -0.09729
C          C       0.53557   0.37110   0.44334  -0.09312
C          C       0.56949   0.31650   0.41804  -0.04593
C          C       0.58522   0.25839   0.44670  -0.11426
C          C       0.58764   0.31784   0.36123   0.56133
C          C       0.04495   0.35512   0.77333   0.56339
C          C       0.09124   0.41514   0.75354  -0.06493
C          C       0.16745   0.40971   0.72003  -0.09746
C          C       0.21134   0.46473   0.70174  -0.10095
C          C       0.17988   0.52544   0.71720  -0.09283
C          C       0.10423   0.53160   0.75099  -0.04230
C          C       0.05996   0.47639   0.76867  -0.12912
C          C       0.07240   0.59677   0.76911   0.55374
C          C       0.25788   0.13308   0.96121   0.55304
C          C       0.19898   0.09661   0.94846  -0.04649
C          C       0.16251   0.12477   0.91148  -0.11491
C          C       0.11350   0.08895   0.89554  -0.03419
C          C       0.09936   0.02442   0.91793  -0.08958
C          C       0.13361   0.99662   0.95619  -0.09629
C          C       0.18383   0.03229   0.97116  -0.09256
C          C       0.08110   0.11898   0.85254   0.55340
C          C       0.13095   0.54542   0.86984  -0.24142
C          C       0.21046   0.54470   0.84326   0.20695
C          C       0.25364   0.48694   0.82914  -0.25290
C          C       0.21481   0.42874   0.84130   0.21045
C          C       0.13528   0.42774   0.86851  -0.26179
C          C       0.09422   0.48637   0.88300   0.20146
C          C       0.23813   0.65367   0.86155  -0.07990
C          C       0.27772   0.70510   0.83148  -0.02651
C          C       0.29138   0.62803   0.78184   0.10252
C          C       0.97430   0.53235   0.94388  -0.10568
C          C       0.89851   0.51463   0.96289  -0.03530
C          C       0.96010   0.44387   0.91010   0.10296
C          C       0.29530   0.26490   0.82301  -0.01915
C          C       0.24186   0.30671   0.85174  -0.07920
C          C       0.31891   0.36360   0.78354   0.09434
C          C       0.81968   0.36092   0.76957  -0.26993
C          C       0.83569   0.34889   0.71897   0.20375
C          C       0.77884   0.32895   0.69962  -0.28370
C          C       0.70383   0.31892   0.73261   0.20923
C          C       0.68532   0.33118   0.78375  -0.28088
C          C       0.74328   0.35276   0.80142   0.20757
C          C       0.95007   0.31157   0.65281   0.08358
C          C       0.03122   0.38820   0.64457  -0.00312
C          C       0.96387   0.40430   0.68112  -0.08312
C          C       0.77907   0.37021   0.87884   0.09758
C          C       0.66221   0.38744   0.93149  -0.02155
C          C       0.65044   0.37582   0.88665  -0.11166
C          C       0.56824   0.29210   0.73880   0.09259
C          C       0.65993   0.27200   0.66670  -0.11452
C          C       0.58923   0.25434   0.66491  -0.01256
C          C       0.26541   0.22391   0.15457  -0.26704
C          C       0.34559   0.23035   0.13107   0.20253
C          C       0.39364   0.25218   0.15651  -0.26519
C          C       0.36037   0.26725   0.20661   0.20724
C          C       0.28034   0.26278   0.23061  -0.26207
C          C       0.23340   0.24137   0.20421   0.20908
C          C       0.09183   0.25414   0.20852   0.11693
C          C       0.11979   0.21511   0.28138  -0.12039
C          C       0.04020   0.22126   0.28945  -0.01898
C          C       0.48083   0.25861   0.23384   0.09839
C          C       0.39258   0.33761   0.26478  -0.12069
C          C       0.45655   0.33736   0.28267  -0.00948
C          C       0.34954   0.23422   0.03969   0.10929
C          C       0.45200   0.18181   0.06139  -0.10801
C          C       0.46235   0.18196   0.01003  -0.01731
C          C       0.78342   0.01351   0.33068  -0.25701
C          C       0.74417   0.95557   0.34321   0.20420
C          C       0.66497   0.95491   0.37118  -0.25491
C          C       0.62468   0.01377   0.38591   0.20899
C          C       0.66201   0.07252   0.37269  -0.23340
C          C       0.74128   0.07142   0.34558   0.20506
C          C       0.82724   0.15359   0.28623   0.09835
C          C       0.76780   0.18010   0.36512  -0.07365
C          C       0.80995   0.23090   0.33617  -0.03766
C          C       0.84662   0.89032   0.28424   0.09837
C          C       0.82522   0.79164   0.32419  -0.03623
C          C       0.77251   0.83336   0.35367  -0.08339
C          C       0.49024   0.97320   0.41183   0.10050
C          C       0.50492   0.06074   0.44666  -0.08750
C          C       0.42844   0.04438   0.46411  -0.02970
C          C       0.37230   0.86557   0.21043   0.20335
C          C       0.31360   0.84707   0.19192  -0.28592
C          C       0.23800   0.84100   0.22506   0.20964
C          C       0.22103   0.85530   0.27557  -0.28721
C          C       0.28039   0.87627   0.29228   0.21152
C          C       0.35723   0.88069   0.26024  -0.26764
C          C       0.50731   0.90998   0.17426  -0.09016
C          C       0.57261   0.89024   0.13754  -0.01611
C          C       0.48210   0.82346   0.14295   0.07569
C          C       0.31610   0.90083   0.36833   0.10465
C          C       0.18767   0.90154   0.37665  -0.12004
C          C       0.19873   0.91664   0.42067  -0.01488
C          C       0.10008   0.81819   0.23335   0.09172
C          C       0.11548   0.78330   0.15913  -0.00677
C          C       0.18798   0.79812   0.15985  -0.11547
C          C       0.42185   0.11813   0.72718   0.55747
C          C       0.37492   0.05843   0.74697  -0.05939
C          C       0.29797   0.06376   0.77956  -0.09854
C          C       0.25427   0.00849   0.79755  -0.10062
C          C       0.28658   0.94763   0.78262  -0.09504
C          C       0.36288   0.94174   0.74964  -0.04934
C          C       0.39701   0.87715   0.73134   0.54922
C          C       0.40693   0.99714   0.73243  -0.13045
C          C       0.39924   0.36138   0.64921   0.55285
C          C       0.36470   0.39453   0.60799  -0.03099
C          C       0.37731   0.46015   0.58853  -0.09020
C          C       0.33918   0.49165   0.55329  -0.09358
C          C       0.28577   0.45863   0.53903  -0.09166
C          C       0.27252   0.39296   0.55870  -0.04164
C          C       0.31378   0.36093   0.59200  -0.11030
C          C       0.20868   0.35890   0.54982   0.55528
C          C       0.67449   0.43783   0.05369   0.55177
C          C       0.62447   0.47599   0.09565  -0.02944
C          C       0.57736   0.44232   0.14029  -0.09649
C          C       0.52944   0.47678   0.17939  -0.09760
C          C       0.52502   0.54517   0.17302  -0.11024
C          C       0.57172   0.57949   0.12846  -0.05200
C          C       0.62310   0.54444   0.09071  -0.11332
C          C       0.56408   0.65299   0.12062   0.57551
C          C       0.88640   0.28584   0.98521   0.55917
C          C       0.92437   0.23269   0.01453  -0.04941
C          C       0.96562   0.17809   0.99194  -0.09125
C          C      -0.00075   0.12918   0.02088  -0.09481
C          C       0.99220   0.13424   0.07219  -0.09603
C          C       0.95264   0.18943   0.09465  -0.04411
C          C       0.91927   0.23807   0.06550  -0.11821
C          C       0.94510   0.19738   0.14925   0.55521
C          C       0.19510   0.95350   0.54150   0.54281
C          C       0.12760   0.98321   0.58042  -0.03082
C          C       0.07728   0.94161   0.61794  -0.09154
C          C       0.01529   0.96750   0.65557  -0.09799
C          C       0.00085   0.03525   0.65430  -0.10409
C          C       0.04907   0.07735   0.61575  -0.05624
C          C       0.11369   0.05101   0.57976  -0.10264
C          C       0.03084   0.14979   0.61343   0.58052
C          C       0.41030   0.81012   0.47231   0.56209
C          C       0.43161   0.74663   0.50012  -0.04913
C          C       0.46650   0.69211   0.47486  -0.08562
C          C       0.48253   0.63353   0.50332  -0.09744
C          C       0.46444   0.62889   0.55666  -0.09292
C          C       0.43052   0.68350   0.58197  -0.04580
C          C       0.41479   0.74161   0.55330  -0.11422
C          C       0.41236   0.68215   0.63878   0.56114
C          C       0.95505   0.64488   0.22667   0.56358
C          C       0.90876   0.58486   0.24647  -0.06490
C          C       0.83255   0.59028   0.27998  -0.09773
C          C       0.78866   0.53527   0.29826  -0.10080
C          C       0.82012   0.47455   0.28281  -0.09273
C          C       0.89577   0.46839   0.24901  -0.04232
C          C       0.94004   0.52361   0.23133  -0.12910
C          C       0.92761   0.40323   0.23089   0.55366
C          C       0.74212   0.86692   0.03880   0.55304
C          C       0.80102   0.90339   0.05154  -0.04648
C          C       0.83749   0.87522   0.08853  -0.11468
C          C       0.88650   0.91104   0.10446  -0.03404
C          C       0.90064   0.97557   0.08208  -0.08977
C          C       0.86639   0.00338   0.04381  -0.09635
C          C       0.81617   0.96771   0.02884  -0.09273
C          C       0.91890   0.88102   0.14746   0.55329
N          N       0.65711   0.69916   0.21919  -0.27266
N          N       0.74294   0.63061   0.17354   0.01980
N          N       0.75280   0.39492   0.17031   0.01083
N          N       0.68978   0.31145   0.21786  -0.28126
N          N       0.98666   0.51295   0.08947   0.02742
N          N       0.10960   0.54038   0.05844  -0.27717
N          N       0.25783   0.61615   0.07405  -0.25491
N          N       0.27483   0.63484   0.14687   0.01509
N          N       0.97822   0.66983   0.37248  -0.29154
N          N       0.08719   0.64443   0.31437   0.02842
N          N       0.46684   0.73289   0.28993  -0.25548
N          N       0.35322   0.70407   0.28621   0.01612
N          N       0.97589   0.75421   0.75601  -0.24522
N          N       0.84755   0.76429   0.77051   0.00964
N          N       0.59112   0.71238   0.76674   0.01318
N          N       0.48969   0.71219   0.73680  -0.24682
N          N       0.60136   0.78489   0.00289  -0.25297
N          N       0.62036   0.78506   0.91989   0.01797
N          N       0.15354   0.78622   0.71265  -0.27599
N          N       0.22102   0.86859   0.66698   0.01350
N          N       0.21368   0.10393   0.67196   0.02153
N          N       0.12886   0.17228   0.71871  -0.26837
N          N       0.45609   0.98486   0.58649   0.02151
N          N       0.57991   0.00997   0.55784  -0.27926
N          N       0.72146   0.08400   0.58505  -0.25447
N          N       0.73737   0.10818   0.65684   0.01490
N          N       0.82160   0.17969   0.79282   0.01509
N          N       0.93827   0.20397   0.79482  -0.25223
N          N       0.55011   0.13255   0.82289   0.02388
N          N       0.44396   0.16388   0.88135  -0.26859
N          N       0.34289   0.30084   0.78081  -0.27217
N          N       0.25706   0.36938   0.82647   0.01952
N          N       0.24720   0.60507   0.82969   0.01117
N          N       0.31022   0.68854   0.78214  -0.28161
N          N       0.01334   0.48704   0.91053   0.02764
N          N       0.89040   0.45962   0.94156  -0.27716
N          N       0.74217   0.38384   0.92596  -0.25475
N          N       0.72517   0.36516   0.85313   0.01497
N          N       0.02178   0.33017   0.62752  -0.29143
N          N       0.91281   0.35556   0.68563   0.02853
N          N       0.53316   0.26711   0.71008  -0.25535
N          N       0.64678   0.29593   0.71379   0.01571
N          N       0.02411   0.24578   0.24399  -0.24542
N          N       0.15245   0.23571   0.22949   0.00979
N          N       0.40888   0.28762   0.23326   0.01305
N          N       0.51031   0.28781   0.26320  -0.24672
N          N       0.39864   0.21510   0.99711  -0.25333
N          N       0.37964   0.21493   0.08012   0.01820
N          N       0.84646   0.21378   0.28735  -0.27632
N          N       0.77898   0.13141   0.33302   0.01358
N          N       0.78632   0.89606   0.32804   0.02153
N          N       0.87114   0.82772   0.28129  -0.26818
N          N       0.54391   0.01513   0.41351   0.02153
N          N       0.42009   0.99002   0.44216  -0.27938
N          N       0.27854   0.91600   0.41495  -0.25434
N          N       0.26263   0.89181   0.34316   0.01486
N          N       0.17841   0.82030   0.20718   0.01524
N          N       0.06173   0.79603   0.20518  -0.25218
N          N       0.44989   0.86744   0.17711   0.02391
N          N       0.55604   0.83612   0.11865  -0.26859
O          O       0.62475   0.14558   0.49753  -0.57302
O          O       0.57525   0.18146   0.57542  -0.55728
O          O       0.57992   0.36970   0.33315  -0.56561
O          O       0.61039   0.26040   0.34526  -0.56429
O          O       0.74737   0.00967   0.48286  -0.56157
O          O       0.80685   0.10464   0.46606  -0.54966
O          O       0.91728   0.81502   0.42107  -0.56485
O          O       0.03105   0.82788   0.35689  -0.56715
O          O       0.08689   0.18220   0.84160  -0.55638
O          O       0.05351   0.08440   0.82885  -0.56674
O          O       0.29553   0.10695   0.99100  -0.56238
O          O       0.26828   0.19228   0.93615  -0.58698
O          O       0.97797   0.35807   0.80490  -0.57471
O          O       0.08134   0.30270   0.75449  -0.56987
O          O       0.00609   0.60364   0.79998  -0.56715
O          O       0.12138   0.64315   0.75002  -0.57660
O          O       0.26246   0.53487   0.97561  -0.56926
O          O       0.34534   0.61664   0.95130  -0.55847
O          O       0.37514   0.31854   0.90950  -0.55687
O          O       0.50017   0.31824   0.85736  -0.58701
O          O       0.15493   0.66949   0.98697  -0.56575
O          O       0.10525   0.71358   0.06165  -0.56615
O          O       0.07159   0.74189   0.84034  -0.57463
O          O       0.04590   0.85041   0.81936  -0.56693
O          O       0.61744   0.82796   0.25938  -0.56312
O          O       0.50787   0.88673   0.29955  -0.57228
O          O       0.64783   0.17181   0.24767  -0.58579
O          O       0.53786   0.12694   0.30117  -0.55534
O          O       0.79381   0.70395   0.43225  -0.57507
O          O       0.84180   0.61146   0.46949  -0.54603
O          O       0.60635   0.70188   0.34264  -0.55697
O          O       0.57233   0.60626   0.32611  -0.56475
O          O       0.37525   0.85442   0.50247  -0.57315
O          O       0.42475   0.81853   0.42458  -0.55763
O          O       0.42008   0.63029   0.66685  -0.56506
O          O       0.38961   0.73959   0.65475  -0.56464
O          O       0.25263   0.99032   0.51714  -0.56212
O          O       0.19315   0.89535   0.53395  -0.54913
O          O       0.08272   0.18497   0.57893  -0.56498
O          O       0.96895   0.17211   0.64312  -0.56725
O          O       0.91311   0.81780   0.15840  -0.55604
O          O       0.94649   0.91559   0.17115  -0.56687
O          O       0.70448   0.89304   0.00900  -0.56280
O          O       0.73172   0.80771   0.06386  -0.58655
O          O       0.02203   0.64193   0.19511  -0.57481
O          O       0.91866   0.69729   0.24551  -0.57013
O          O       0.99391   0.39636   0.20002  -0.56715
O          O       0.87862   0.35684   0.24998  -0.57635
O          O       0.73754   0.46513   0.02439  -0.56964
O          O       0.65466   0.38335   0.04870  -0.55799
O          O       0.62486   0.68145   0.09050  -0.55702
O          O       0.49983   0.68175   0.14265  -0.58728
O          O       0.84508   0.33051   0.01303  -0.56604
O          O       0.89476   0.28641   0.93835  -0.56657
O          O       0.92842   0.25812   0.15966  -0.57496
O          O       0.95410   0.14961   0.18064  -0.56616
O          O       0.38256   0.17203   0.74062  -0.56344
O          O       0.49213   0.11326   0.70045  -0.57232
O          O       0.35217   0.82818   0.75233  -0.58557
O          O       0.46214   0.87305   0.69884  -0.55538
O          O       0.20619   0.29605   0.56775  -0.57460
O          O       0.15820   0.38854   0.53052  -0.54634
O          O       0.39365   0.29811   0.65736  -0.55675
O          O       0.42768   0.39374   0.67389  -0.56490

