data_crystal

_audit_creation_method 'AiiDA-DDEC plugin'

_cell_length_a        13.12532
_cell_length_b        13.12532
_cell_length_c        54.04424

_cell_angle_alpha     90.00045
_cell_angle_beta     89.99955
_cell_angle_gamma     90.00000

_symmetry_space_group_name_Hall 'P 1'
_symmetry_space_group_name_H-M  'P 1'

loop_
_symmetry_equiv_pos_as_xyz
 'x,y,z'

loop_
_atom_site_label
_atom_site_type_symbol
_atom_site_fract_x
_atom_site_fract_y
_atom_site_fract_z
_atom_site_charge
Zn         Zn      0.15847   0.12444   0.88434   0.69043
Zn         Zn      0.32574   0.05947   0.68470   0.69226
Zn         Zn      0.84156   0.87555   0.38431   0.69028
Zn         Zn      0.67425   0.94060   0.18471   0.69203
Zn         Zn      0.37556   0.65847   0.13433   0.69028
Zn         Zn      0.44056   0.82577   0.93470   0.69227
Zn         Zn      0.62444   0.34154   0.63432   0.69019
Zn         Zn      0.55944   0.17426   0.43471   0.69217
Zn         Zn      0.34154   0.62445   0.36568   0.69038
Zn         Zn      0.17426   0.55944   0.56529   0.69194
Zn         Zn      0.65846   0.37557   0.86567   0.69023
Zn         Zn      0.82576   0.44056   0.06529   0.69213
Zn         Zn      0.12443   0.15848   0.11566   0.69028
Zn         Zn      0.05947   0.32575   0.31529   0.69214
Zn         Zn      0.87554   0.84156   0.61569   0.69035
Zn         Zn      0.94059   0.67425   0.81529   0.69205
B          B       0.26322   0.52951   0.87198   0.51581
B          B       0.73677   0.47049   0.37198   0.51579
B          B       0.97049   0.76323   0.12198   0.51593
B          B       0.02950   0.23678   0.62197   0.51535
B          B       0.23677   0.02951   0.37802   0.51557
B          B       0.76323   0.97050   0.87802   0.51610
B          B       0.52951   0.26323   0.12802   0.51583
B          B       0.47049   0.73678   0.62802   0.51559
H          H       0.05456   0.53027   0.85317   0.09513
H          H       0.32535   0.69700   0.83999   0.12530
H          H       0.16731   0.77549   0.81102   0.14078
H          H       0.28975   0.30987   0.86828   0.11636
H          H       0.00166   0.31225   0.90301   0.12865
H          H       0.06503   0.51120   0.89676   0.12672
H          H       0.46779   0.48226   0.89007   0.11381
H          H       0.30748   0.46297   0.82209   0.13437
H          H       0.49999   0.37713   0.81689   0.11979
H          H       0.33709   0.95706   0.88617   0.08458
H          H       0.33346   0.99316   0.96363   0.12130
H          H       0.20324   0.13581   0.94199   0.10719
H          H       0.35384   0.73073   0.88125   0.09340
H          H       0.36183   0.61535   0.95391   0.13421
H          H       0.26150   0.47600   0.92360   0.12810
H          H       0.36143   0.19556   0.80518   0.09767
H          H       0.37065   0.16315   0.75931   0.11096
H          H       0.12719   0.94583   0.76604   0.11961
H          H       0.11492   0.98246   0.81086   0.11019
H          H       0.94543   0.46974   0.35317   0.09541
H          H       0.67464   0.30300   0.33998   0.12534
H          H       0.83271   0.22452   0.31102   0.14042
H          H       0.71025   0.69014   0.36829   0.11654
H          H      -0.00165   0.68773   0.40301   0.12882
H          H       0.93495   0.48879   0.39676   0.12648
H          H       0.53220   0.51776   0.39007   0.11393
H          H       0.69251   0.53704   0.32209   0.13417
H          H       0.50000   0.62289   0.31689   0.11988
H          H       0.66294   0.04290   0.38618   0.08462
H          H       0.66652   0.00687   0.46364   0.12118
H          H       0.79673   0.86423   0.44200   0.10695
H          H       0.64614   0.26928   0.38124   0.09321
H          H       0.63816   0.38466   0.45391   0.13436
H          H       0.73849   0.52401   0.42360   0.12844
H          H       0.63851   0.80440   0.30518   0.09762
H          H       0.62942   0.83695   0.25932   0.11075
H          H       0.87276   0.05413   0.26605   0.11933
H          H       0.88515   0.01762   0.31087   0.11059
H          H       0.96974   0.55458   0.10317   0.09527
H          H       0.80301   0.82536   0.08999   0.12547
H          H       0.72453   0.66731   0.06103   0.14042
H          H       0.19014   0.78977   0.11829   0.11679
H          H       0.18775   0.50167   0.15301   0.12864
H          H       0.98880   0.56505   0.14676   0.12645
H          H       0.01775   0.96780   0.14008   0.11398
H          H       0.03704   0.80750   0.07209   0.13410
H          H       0.12288   0.00001   0.06689   0.11985
H          H       0.54295   0.83709   0.13618   0.08454
H          H       0.50685   0.83348   0.21364   0.12132
H          H       0.36421   0.70325   0.19200   0.10699
H          H       0.76928   0.85386   0.13125   0.09317
H          H       0.88467   0.86184   0.20392   0.13437
H          H       0.02401   0.76152   0.17361   0.12837
H          H       0.30443   0.86145   0.05518   0.09789
H          H       0.33692   0.87061   0.00932   0.11074
H          H       0.55415   0.62723   0.01604   0.11980
H          H       0.51759   0.61487   0.06086   0.11031
H          H       0.03026   0.44543   0.60317   0.09555
H          H       0.19699   0.17465   0.58998   0.12536
H          H       0.27548   0.33270   0.56102   0.14058
H          H       0.80987   0.21026   0.61828   0.11647
H          H       0.81226   0.49835   0.65301   0.12885
H          H       0.01121   0.43496   0.64676   0.12659
H          H       0.98223   0.03220   0.64007   0.11375
H          H       0.96297   0.19253   0.57209   0.13431
H          H       0.87711   0.00002   0.56689   0.11990
H          H       0.45709   0.16293   0.63617   0.08467
H          H       0.49313   0.16653   0.71363   0.12136
H          H       0.63579   0.29674   0.69200   0.10708
H          H       0.23071   0.14616   0.63124   0.09308
H          H       0.11535   0.13817   0.70391   0.13424
H          H       0.97599   0.23850   0.67360   0.12846
H          H       0.69558   0.13853   0.55518   0.09762
H          H       0.66311   0.12938   0.50931   0.11073
H          H       0.44584   0.37280   0.51604   0.11962
H          H       0.48241   0.38511   0.56087   0.11048
H          H       0.44543   0.03027   0.39683   0.09528
H          H       0.17464   0.19700   0.41001   0.12553
H          H       0.33270   0.27549   0.43898   0.14053
H          H       0.21025   0.80987   0.38172   0.11647
H          H       0.49835   0.81227   0.34699   0.12875
H          H       0.43496   0.01121   0.35324   0.12681
H          H       0.03220   0.98224   0.35993   0.11406
H          H       0.19252   0.96297   0.42791   0.13409
H          H       0.00001   0.87712   0.43311   0.11968
H          H       0.16293   0.45710   0.36383   0.08459
H          H       0.16652   0.49314   0.28637   0.12148
H          H       0.29674   0.63580   0.30800   0.10716
H          H       0.14615   0.23072   0.36876   0.09317
H          H       0.13816   0.11536   0.29609   0.13441
H          H       0.23849   0.97600   0.32639   0.12823
H          H       0.13852   0.69559   0.44482   0.09784
H          H       0.12938   0.66312   0.49069   0.11095
H          H       0.37279   0.44585   0.48396   0.11925
H          H       0.38510   0.48242   0.43913   0.11038
H          H       0.55457   0.96974   0.89683   0.09556
H          H       0.82536   0.80302   0.91001   0.12524
H          H       0.66730   0.72453   0.93897   0.14005
H          H       0.78976   0.19014   0.88171   0.11652
H          H       0.50166   0.18775   0.84699   0.12889
H          H       0.56504   0.98881   0.85323   0.12645
H          H       0.96779   0.01775   0.85992   0.11407
H          H       0.80749   0.03705   0.92790   0.13408
H          H      -0.00000   0.12289   0.93311   0.11960
H          H       0.83708   0.54295   0.86382   0.08450
H          H       0.83347   0.50685   0.78636   0.12143
H          H       0.70325   0.36422   0.80800   0.10722
H          H       0.85386   0.76929   0.86875   0.09309
H          H       0.86184   0.88468   0.79608   0.13454
H          H       0.76151   0.02401   0.82639   0.12854
H          H       0.86145   0.30443   0.94481   0.09965
H          H       0.87060   0.33693   0.99068   0.11052
H          H       0.62723   0.55416   0.98395   0.11990
H          H       0.61487   0.51760   0.93913   0.11071
H          H       0.53027   0.05457   0.14683   0.09524
H          H       0.69699   0.32536   0.16001   0.12541
H          H       0.77548   0.16731   0.18898   0.14057
H          H       0.30986   0.28976   0.13172   0.11665
H          H       0.31224   0.00167   0.09699   0.12861
H          H       0.51119   0.06504   0.10324   0.12655
H          H       0.48225   0.46779   0.10993   0.11408
H          H       0.46297   0.30748   0.17791   0.13406
H          H       0.37712   0.49999   0.18311   0.11981
H          H       0.95706   0.33710   0.11383   0.08443
H          H       0.99315   0.33347   0.03637   0.12151
H          H       0.13580   0.20325   0.05801   0.10710
H          H       0.73072   0.35385   0.11875   0.09317
H          H       0.61534   0.36184   0.04609   0.13444
H          H       0.47599   0.26151   0.07639   0.12828
H          H       0.19555   0.36144   0.19482   0.09977
H          H       0.16314   0.37065   0.24069   0.11088
H          H       0.94583   0.12720   0.23396   0.11954
H          H       0.98245   0.11492   0.18914   0.11027
H          H       0.46973   0.94543   0.64683   0.09544
H          H       0.30300   0.67465   0.66002   0.12521
H          H       0.22452   0.83271   0.68897   0.14038
H          H       0.69013   0.71025   0.63171   0.11638
H          H       0.68772  -0.00164   0.59698   0.12894
H          H       0.48878   0.93496   0.60324   0.12670
H          H       0.51776   0.53221   0.60992   0.11414
H          H       0.53704   0.69252   0.67791   0.13414
H          H       0.62288   0.50001   0.68311   0.11956
H          H       0.04290   0.66295   0.61382   0.08425
H          H       0.00687   0.66652   0.53636   0.12123
H          H       0.86422   0.79674   0.55800   0.10728
H          H       0.26927   0.64615   0.61875   0.09311
H          H       0.38465   0.63817   0.54608   0.13448
H          H       0.52400   0.73849   0.57639   0.12841
H          H       0.80439   0.63852   0.69481   0.09774
H          H       0.83695   0.62943   0.74068   0.11060
H          H       0.05413   0.87277   0.73395   0.11929
H          H       0.01761   0.88516   0.68913   0.11070
C          C       0.10589   0.58811   0.84618   0.11554
C          C       0.24552   0.67692   0.83910  -0.08512
C          C       0.16820   0.71472   0.82462  -0.02574
C          C       0.22144   0.33844   0.87714   0.13059
C          C       0.07234   0.34117   0.89530  -0.03562
C          C       0.10184   0.44047   0.89176  -0.08472
C          C       0.45056   0.46595   0.87087   0.12959
C          C       0.36921   0.45440   0.83516  -0.06760
C          C       0.46435   0.41203   0.83283  -0.04431
C          C       0.31912   0.98594   0.90444   0.11544
C          C       0.31511   0.00802   0.94445  -0.05373
C          C       0.25050   0.07758   0.93368  -0.07831
C          C       0.34245   0.68100   0.89697   0.11714
C          C       0.34427   0.61814   0.93436  -0.03114
C          C       0.29545   0.54900   0.91950  -0.07528
C          C       0.23521   0.11117   0.83819   0.55428
C          C       0.23870   0.09052   0.81092  -0.03862
C          C       0.31071   0.14146   0.79623  -0.11496
C          C       0.31576   0.12351   0.77088  -0.11022
C          C       0.25002   0.05268   0.75970  -0.03193
C          C       0.17786   0.00176   0.77433  -0.10108
C          C       0.17178   0.02116   0.79965  -0.10253
C          C       0.25544   0.03228   0.73237   0.54777
C          C       0.89411   0.41191   0.34618   0.11566
C          C       0.75448   0.32308   0.33910  -0.08549
C          C       0.83181   0.28529   0.32462  -0.02595
C          C       0.77855   0.66157   0.37715   0.13094
C          C       0.92766   0.65882   0.39531  -0.03591
C          C       0.89815   0.55952   0.39176  -0.08515
C          C       0.54943   0.53407   0.37087   0.12929
C          C       0.63078   0.54562   0.33516  -0.06775
C          C       0.53564   0.58799   0.33283  -0.04428
C          C       0.68089   0.01404   0.40445   0.11551
C          C       0.68488   0.99200   0.44446  -0.05257
C          C       0.74948   0.92244   0.43369  -0.07971
C          C       0.65754   0.31901   0.39697   0.11640
C          C       0.65573   0.38187   0.43436  -0.03081
C          C       0.70454   0.45101   0.41950  -0.07508
C          C       0.76478   0.88884   0.33818   0.55416
C          C       0.76128   0.90950   0.31092  -0.03853
C          C       0.68927   0.85851   0.29624  -0.11501
C          C       0.68429   0.87655   0.27088  -0.11081
C          C       0.74999   0.94742   0.25971  -0.03080
C          C       0.82214  -0.00176   0.27435  -0.10139
C          C       0.82827   0.97886   0.29967  -0.10230
C          C       0.74453   0.96792   0.23237   0.54799
C          C       0.91191   0.60590   0.09618   0.11577
C          C       0.82309   0.74552   0.08910  -0.08552
C          C       0.78529   0.66820   0.07462  -0.02617
C          C       0.16157   0.72146   0.12714   0.13065
C          C       0.15883   0.57235   0.14531  -0.03567
C          C       0.05953   0.60185   0.14176  -0.08532
C          C       0.03406   0.95058   0.12087   0.12984
C          C       0.04561   0.86923   0.08516  -0.06792
C          C       0.08798   0.96437   0.08283  -0.04424
C          C       0.51407   0.81912   0.15445   0.11569
C          C       0.49200   0.81512   0.19446  -0.05286
C          C       0.42244   0.75051   0.18369  -0.07934
C          C       0.81901   0.84247   0.14698   0.11631
C          C       0.88187   0.84428   0.18436  -0.03053
C          C       0.95101   0.79546   0.16950  -0.07507
C          C       0.38884   0.73521   0.08818   0.55398
C          C       0.40950   0.73869   0.06092  -0.03817
C          C       0.35853   0.81071   0.04624  -0.11521
C          C       0.37652   0.81574   0.02089  -0.11018
C          C       0.44737   0.75003   0.00971  -0.03197
C          C       0.49824   0.67787   0.02434  -0.10174
C          C       0.47886   0.67175   0.04966  -0.10248
C          C       0.46782   0.75548   0.98237   0.54840
C          C       0.08809   0.39411   0.59618   0.11546
C          C       0.17692   0.25449   0.58910  -0.08616
C          C       0.21472   0.33181   0.57462  -0.02589
C          C       0.83843   0.27856   0.62714   0.13072
C          C       0.84118   0.42767   0.64531  -0.03562
C          C       0.94048   0.39816   0.64176  -0.08497
C          C       0.96593   0.04944   0.62087   0.12940
C          C       0.95439   0.13080   0.58516  -0.06771
C          C       0.91202   0.03566   0.58283  -0.04414
C          C       0.48596   0.18089   0.65444   0.11542
C          C       0.50801   0.18488   0.69445  -0.05323
C          C       0.57757   0.24949   0.68368  -0.07909
C          C       0.18098   0.15755   0.64697   0.11662
C          C       0.11813   0.15573   0.68436  -0.03056
C          C       0.04899   0.20455   0.66949  -0.07514
C          C       0.61117   0.26476   0.58819   0.55410
C          C       0.59052   0.26127   0.56093  -0.03856
C          C       0.64148   0.18927   0.54623  -0.11521
C          C       0.62348   0.18426   0.52088  -0.11021
C          C       0.55262   0.24999   0.50971  -0.03144
C          C       0.50176   0.32215   0.52434  -0.10129
C          C       0.52115   0.32824   0.54967  -0.10245
C          C       0.53219   0.24454   0.48237   0.54793
C          C       0.39410   0.08810   0.40382   0.11511
C          C       0.25448   0.17692   0.41090  -0.08557
C          C       0.33180   0.21472   0.42538  -0.02594
C          C       0.27856   0.83844   0.37286   0.13063
C          C       0.42767   0.84118   0.35469  -0.03589
C          C       0.39815   0.94048   0.35824  -0.08493
C          C       0.04944   0.96594   0.37913   0.12988
C          C       0.13079   0.95440   0.41484  -0.06792
C          C       0.03565   0.91203   0.41717  -0.04443
C          C       0.18088   0.48597   0.34556   0.11480
C          C       0.18488   0.50801   0.30554  -0.05308
C          C       0.24948   0.57758   0.31632  -0.07872
C          C       0.15754   0.18099   0.35303   0.11663
C          C       0.15573   0.11814   0.31564  -0.03072
C          C       0.20454   0.04899   0.33050  -0.07502
C          C       0.26476   0.61118   0.41181   0.55420
C          C       0.26126   0.59052   0.43907  -0.03889
C          C       0.18926   0.64148   0.45377  -0.11469
C          C       0.18426   0.62349   0.47912  -0.11037
C          C       0.24998   0.55263   0.49029  -0.03167
C          C       0.32214   0.50176   0.47565  -0.10131
C          C       0.32823   0.52116   0.45033  -0.10235
C          C       0.24454   0.53219   0.51763   0.54849
C          C       0.60589   0.91191   0.90382   0.11613
C          C       0.74552   0.82309   0.91090  -0.08571
C          C       0.66820   0.78529   0.92538  -0.02618
C          C       0.72145   0.16157   0.87285   0.13058
C          C       0.57234   0.15884   0.85469  -0.03553
C          C       0.60184   0.05953   0.85824  -0.08496
C          C       0.95057   0.03407   0.87913   0.12984
C          C       0.86922   0.04562   0.91483  -0.06796
C          C       0.96436   0.08799   0.91716  -0.04418
C          C       0.81912   0.51408   0.84555   0.11504
C          C       0.81511   0.49200   0.80554  -0.05251
C          C       0.75051   0.42244   0.81631  -0.07958
C          C       0.84246   0.81901   0.85302   0.11573
C          C       0.84427   0.88188   0.81563  -0.03030
C          C       0.79546   0.95102   0.83050  -0.07478
C          C       0.73520   0.38885   0.91182   0.55404
C          C       0.73869   0.40951   0.93907  -0.03823
C          C       0.81070   0.35854   0.95376  -0.11725
C          C       0.81573   0.37653   0.97911  -0.11045
C          C       0.75003   0.44737   0.99029  -0.03191
C          C       0.67787   0.49824   0.97566  -0.10158
C          C       0.67174   0.47886   0.95034  -0.10234
C          C       0.75547   0.46782   0.01763   0.54823
C          C       0.58810   0.10590   0.15382   0.11560
C          C       0.67692   0.24552   0.16090  -0.08532
C          C       0.71472   0.16821   0.17538  -0.02619
C          C       0.33843   0.22145   0.12286   0.13072
C          C       0.34116   0.07234   0.10469  -0.03550
C          C       0.44047   0.10185   0.10824  -0.08520
C          C       0.46594   0.45057   0.12913   0.12966
C          C       0.45439   0.36922   0.16484  -0.06783
C          C       0.41203   0.46436   0.16717  -0.04442
C          C       0.98593   0.31913   0.09556   0.11539
C          C       0.00801   0.31512   0.05555  -0.05301
C          C       0.07757   0.25051   0.06632  -0.07899
C          C       0.68099   0.34246   0.10302   0.11654
C          C       0.61813   0.34427   0.06564  -0.03083
C          C       0.54899   0.29545   0.08050  -0.07501
C          C       0.11117   0.23522   0.16181   0.55425
C          C       0.09051   0.23871   0.18907  -0.03877
C          C       0.14146   0.31072   0.20377  -0.11686
C          C       0.12351   0.31577   0.22912  -0.11026
C          C       0.05267   0.25003   0.24030  -0.03182
C          C       0.00175   0.17787   0.22567  -0.10135
C          C       0.02115   0.17178   0.20034  -0.10237
C          C       0.03227   0.25545   0.26763   0.54767
C          C       0.41190   0.89411   0.65382   0.11585
C          C       0.32308   0.75449   0.66090  -0.08564
C          C       0.28528   0.83182   0.67538  -0.02595
C          C       0.66156   0.77856   0.62285   0.13042
C          C       0.65881   0.92767   0.60469  -0.03540
C          C       0.55952   0.89816   0.60824  -0.08488
C          C       0.53406   0.54944   0.62913   0.12946
C          C       0.54561   0.63079   0.66484  -0.06769
C          C       0.58798   0.53565   0.66717  -0.04454
C          C       0.01403   0.68090   0.59555   0.11528
C          C       0.99200   0.68489   0.55554  -0.05216
C          C       0.92243   0.74948   0.56631  -0.07947
C          C       0.31900   0.65755   0.60303   0.11642
C          C       0.38186   0.65573   0.56564  -0.03072
C          C       0.45101   0.70455   0.58050  -0.07497
C          C       0.88883   0.76478   0.66182   0.55394
C          C       0.90949   0.76128   0.68907  -0.03839
C          C       0.85851   0.68928   0.70376  -0.11511
C          C       0.87655   0.68430   0.72911  -0.11068
C          C       0.94742   0.74999   0.74029  -0.03097
C          C      -0.00177   0.82215   0.72564  -0.10153
C          C       0.97885   0.82828   0.70032  -0.10219
C          C       0.96791   0.74453   0.76763   0.54811
N          N       0.20538   0.59672   0.85297  -0.19494
N          N       0.08125   0.65813   0.82928  -0.26835
N          N       0.19639   0.43840   0.87994  -0.20426
N          N       0.14847   0.27816   0.88620  -0.27194
N          N       0.36108   0.48933   0.85939  -0.21194
N          N       0.51453   0.41986   0.85529  -0.26787
N          N       0.35859   0.95002   0.92580  -0.30689
N          N       0.25345   0.06338   0.90831  -0.29808
N          N       0.29389   0.58940   0.89566  -0.20405
N          N       0.37341   0.70054   0.92003  -0.26695
N          N       0.79462   0.40329   0.35296  -0.19439
N          N       0.91876   0.34189   0.32928  -0.26867
N          N       0.80361   0.56161   0.37994  -0.20467
N          N       0.85153   0.72183   0.38620  -0.27135
N          N       0.63892   0.51068   0.35939  -0.21211
N          N       0.48547   0.58016   0.35529  -0.26730
N          N       0.64141   0.04999   0.42580  -0.30650
N          N       0.74656   0.93660   0.40832  -0.29838
N          N       0.70610   0.41061   0.39566  -0.20377
N          N       0.62659   0.29947   0.42003  -0.26715
N          N       0.90329   0.70538   0.10297  -0.19412
N          N       0.84189   0.58125   0.07928  -0.26881
N          N       0.06161   0.69640   0.12995  -0.20416
N          N       0.22184   0.64849   0.13620  -0.27156
N          N       0.01068   0.86109   0.10939  -0.21227
N          N       0.08015   0.01454   0.10530  -0.26744
N          N       0.55000   0.85859   0.17581  -0.30640
N          N       0.43663   0.75346   0.15832  -0.29854
N          N       0.91061   0.79391   0.14566  -0.20417
N          N       0.79947   0.87342   0.17003  -0.26696
N          N       0.09671   0.29462   0.60296  -0.19393
N          N       0.15811   0.41876   0.57928  -0.26848
N          N       0.93839   0.30362   0.62994  -0.20455
N          N       0.77816   0.35154   0.63620  -0.27156
N          N       0.98932   0.13893   0.60938  -0.21174
N          N       0.91985   0.98548   0.60529  -0.26772
N          N       0.45002   0.14142   0.67580  -0.30681
N          N       0.56340   0.24656   0.65832  -0.29827
N          N       0.08938   0.20611   0.64565  -0.20356
N          N       0.20052   0.12659   0.67002  -0.26753
N          N       0.29462   0.09672   0.39703  -0.19389
N          N       0.41875   0.15812   0.42072  -0.26869
N          N       0.30361   0.93840   0.37005  -0.20430
N          N       0.35153   0.77817   0.36380  -0.27170
N          N       0.13893   0.98933   0.39061  -0.21196
N          N       0.98548   0.91985   0.39471  -0.26754
N          N       0.14141   0.45003   0.32420  -0.30648
N          N       0.24655   0.56340   0.34168  -0.29849
N          N       0.20610   0.08939   0.35434  -0.20411
N          N       0.12659   0.20053   0.32997  -0.26690
N          N       0.70538   0.90329   0.89703  -0.19394
N          N       0.58124   0.84189   0.92072  -0.26905
N          N       0.69639   0.06161   0.87005  -0.20476
N          N       0.64848   0.22185   0.86380  -0.27121
N          N       0.86108   0.01068   0.89061  -0.21217
N          N       0.01453   0.08016   0.89470  -0.26762
N          N       0.85858   0.55000   0.82419  -0.30618
N          N       0.75345   0.43664   0.84168  -0.29849
N          N       0.79390   0.91062   0.85434  -0.20401
N          N       0.87341   0.79948   0.82996  -0.26717
N          N       0.59672   0.20538   0.14703  -0.19415
N          N       0.65812   0.08125   0.17072  -0.26871
N          N       0.43839   0.19639   0.12005  -0.20432
N          N       0.27815   0.14848   0.11380  -0.27181
N          N       0.48932   0.36108   0.14061  -0.21218
N          N       0.41985   0.51453   0.14471  -0.26741
N          N       0.95001   0.35859   0.07420  -0.30650
N          N       0.06337   0.25346   0.09168  -0.29819
N          N       0.58939   0.29389   0.10434  -0.20417
N          N       0.70053   0.37341   0.07997  -0.26682
N          N       0.40328   0.79463   0.64703  -0.19435
N          N       0.34188   0.91877   0.67072  -0.26859
N          N       0.56160   0.80362   0.62005  -0.20450
N          N       0.72183   0.85154   0.61380  -0.27171
N          N       0.51068   0.63892   0.64061  -0.21190
N          N       0.58015   0.48547   0.64470  -0.26753
N          N       0.04998   0.64142   0.57419  -0.30695
N          N       0.93660   0.74657   0.59168  -0.29827
N          N       0.41061   0.70611   0.60434  -0.20402
N          N       0.29947   0.62659   0.57997  -0.26688
O          O       0.32390   0.08532   0.72037  -0.55777
O          O       0.19691   0.96964   0.72229  -0.54806
O          O       0.15646   0.07465   0.84998  -0.55875
O          O       0.30463   0.16131   0.84861  -0.57592
O          O       0.67586   0.91513   0.22039  -0.55811
O          O       0.80321   0.03040   0.22228  -0.54795
O          O       0.84354   0.92539   0.34996  -0.55840
O          O       0.69538   0.83869   0.34860  -0.57593
O          O       0.41488   0.82403   0.97038  -0.55758
O          O       0.53038   0.69686   0.97229  -0.54888
O          O       0.42538   0.65647   0.09997  -0.55870
O          O       0.33869   0.80463   0.09860  -0.57564
O          O       0.58513   0.17599   0.47038  -0.55812
O          O       0.46962   0.30315   0.47228  -0.54795
O          O       0.57463   0.34354   0.59996  -0.55825
O          O       0.66131   0.19537   0.59862  -0.57596
O          O       0.17599   0.58514   0.52962  -0.55779
O          O       0.30314   0.46963   0.52772  -0.54881
O          O       0.34353   0.57463   0.40003  -0.55878
O          O       0.19536   0.66131   0.40138  -0.57543
O          O       0.82402   0.41489   0.02962  -0.55795
O          O       0.69686   0.53038   0.02771  -0.54847
O          O       0.65646   0.42538   0.90002  -0.55825
O          O       0.80462   0.33870   0.90140  -0.57606
O          O       0.08532   0.32391   0.27963  -0.55767
O          O       0.96964   0.19691   0.27770  -0.54813
O          O       0.07464   0.15647   0.15002  -0.55874
O          O       0.16130   0.30464   0.15139  -0.57578
O          O       0.91512   0.67586   0.77961  -0.55820
O          O       0.03039   0.80322   0.77772  -0.54819
O          O       0.92539   0.84355   0.65004  -0.55827
O          O       0.83868   0.69539   0.65140  -0.57578

