data_crystal

_audit_creation_method 'AiiDA-DDEC plugin'

_cell_length_a        12.89507
_cell_length_b        22.01646
_cell_length_c        21.96372

_cell_angle_alpha     90.00000
_cell_angle_beta     90.00000
_cell_angle_gamma     89.99318

_symmetry_space_group_name_Hall 'P 1'
_symmetry_space_group_name_H-M  'P 1'

loop_
_symmetry_equiv_pos_as_xyz
 'x,y,z'

loop_
_atom_site_label
_atom_site_type_symbol
_atom_site_fract_x
_atom_site_fract_y
_atom_site_fract_z
_atom_site_charge
Ag         Ag      0.12652   0.24793   0.47083   0.50611
Ag         Ag      0.87347   0.25210   0.97084   0.50602
Ag         Ag      0.62651   0.75210   0.02921   0.50533
Ag         Ag      0.37348   0.74787   0.52920   0.50540
Ag         Ag      0.87347   0.75207   0.52916   0.50604
Ag         Ag      0.12652   0.74790   0.02915   0.50609
Ag         Ag      0.37348   0.24790   0.97078   0.50531
Ag         Ag      0.62651   0.25213   0.47080   0.50535
H          H       0.68011   0.10232   0.27396   0.12132
H          H       0.85561   0.10341   0.33440   0.11687
H          H       0.58868   0.31693   0.25206   0.12886
H          H       0.41158   0.31966   0.19462   0.12930
H          H       0.13217   0.11253   0.10828   0.11375
H          H       0.30468   0.10721   0.17024   0.11192
H          H       0.36415   0.38567   0.62019   0.11785
H          H       0.53795   0.44503   0.63473   0.11779
H          H       0.85290   0.52293   0.43791   0.12748
H          H       0.67603   0.46634   0.42756   0.13029
H          H       0.92297   0.53942   0.65546   0.12196
H          H       0.09368   0.60383   0.66249   0.11574
H          H       0.31989   0.39768   0.77396   0.12137
H          H       0.14439   0.39659   0.83439   0.11695
H          H       0.41132   0.18307   0.75206   0.12887
H          H       0.58842   0.18034   0.69461   0.12920
H          H       0.86783   0.38747   0.60828   0.11385
H          H       0.69532   0.39279   0.67024   0.11197
H          H       0.63585   0.11433   0.12019   0.11784
H          H       0.46204   0.05497   0.13474   0.11781
H          H       0.14709   0.97708   0.93791   0.12763
H          H       0.32397   0.03366   0.92756   0.13035
H          H       0.07701   0.96058   0.15546   0.12191
H          H       0.90631   0.89617   0.16249   0.11595
H          H       0.18008   0.89770   0.22601   0.12108
H          H       0.35562   0.89662   0.16563   0.11662
H          H       0.08871   0.68308   0.24791   0.12966
H          H       0.91162   0.68034   0.30538   0.12920
H          H       0.63219   0.88747   0.39169   0.11459
H          H       0.80469   0.89276   0.32972   0.11203
H          H       0.86401   0.61437   0.87982   0.11794
H          H       0.03787   0.55502   0.86527   0.11722
H          H       0.35283   0.47713   0.06210   0.12659
H          H       0.17595   0.53371   0.07245   0.12971
H          H       0.42300   0.46061   0.84457   0.12265
H          H       0.59358   0.39611   0.83750   0.11487
H          H       0.81991   0.60230   0.72601   0.12089
H          H       0.64437   0.60339   0.66563   0.11669
H          H       0.91128   0.81692   0.74791   0.12984
H          H       0.08837   0.81966   0.80538   0.12918
H          H       0.36780   0.61253   0.89169   0.11431
H          H       0.19530   0.60724   0.82972   0.11200
H          H       0.13598   0.88563   0.37982   0.11763
H          H       0.96213   0.94498   0.36527   0.11732
H          H       0.64716   0.02287   0.56210   0.12642
H          H       0.82404   0.96629   0.57245   0.12951
H          H       0.57699   0.03939   0.34457   0.12259
H          H       0.40642   0.10389   0.33751   0.11491
H          H       0.31989   0.89768   0.72604   0.12128
H          H       0.14438   0.89659   0.66560   0.11702
H          H       0.41131   0.68307   0.74794   0.12886
H          H       0.58842   0.68034   0.80538   0.12915
H          H       0.86782   0.88747   0.89172   0.11377
H          H       0.69532   0.89279   0.82975   0.11198
H          H       0.63584   0.61433   0.37981   0.11783
H          H       0.46204   0.55497   0.36526   0.11794
H          H       0.14709   0.47708   0.56209   0.12746
H          H       0.32396   0.53366   0.57243   0.13017
H          H       0.07702   0.46058   0.34454   0.12200
H          H       0.90632   0.39617   0.33751   0.11597
H          H       0.68010   0.60232   0.22604   0.12140
H          H       0.85561   0.60341   0.16560   0.11684
H          H       0.58868   0.81693   0.24794   0.12886
H          H       0.41157   0.81966   0.30538   0.12936
H          H       0.13217   0.61253   0.39172   0.11372
H          H       0.30468   0.60721   0.32975   0.11193
H          H       0.36415   0.88567   0.87981   0.11803
H          H       0.53795   0.94503   0.86526   0.11811
H          H       0.85290   0.02292   0.06209   0.12751
H          H       0.67603   0.96634   0.07244   0.13027
H          H       0.92298   0.03942   0.84454   0.12202
H          H       0.09368   0.10383   0.83751   0.11593
H          H       0.81991   0.10230   0.77398   0.12104
H          H       0.64437   0.10339   0.83437   0.11668
H          H       0.91128   0.31692   0.75209   0.12975
H          H       0.08838   0.31966   0.69462   0.12920
H          H       0.36781   0.11253   0.60831   0.11447
H          H       0.19531   0.10724   0.67028   0.11199
H          H       0.13598   0.38563   0.12018   0.11763
H          H       0.96213   0.44498   0.13473   0.11724
H          H       0.64716   0.52287   0.93790   0.12676
H          H       0.82404   0.46629   0.92755   0.12972
H          H       0.57699   0.53939   0.15543   0.12251
H          H       0.40641   0.60389   0.16249   0.11490
H          H       0.18008   0.39770   0.27398   0.12103
H          H       0.35562   0.39662   0.33437   0.11665
H          H       0.08871   0.18308   0.25209   0.12965
H          H       0.91162   0.18034   0.19462   0.12917
H          H       0.63219   0.38747   0.10831   0.11456
H          H       0.80469   0.39276   0.17028   0.11204
H          H       0.86401   0.11437   0.62018   0.11765
H          H       0.03787   0.05502   0.63472   0.11716
H          H       0.35283   0.97713   0.43790   0.12650
H          H       0.17596   0.03371   0.42755   0.12969
H          H       0.42300   0.96061   0.65542   0.12262
H          H       0.59358   0.89611   0.66249   0.11474
C          C       0.93085   0.21963   0.37132   0.26787
C          C       0.84126   0.20221   0.34067  -0.06073
C          C       0.67237   0.20096   0.28411  -0.00191
C          C       0.71638   0.14305   0.29194  -0.18882
C          C       0.81052   0.14364   0.32355  -0.12330
C          C       0.57942   0.21812   0.25365  -0.03656
C          C       0.54447   0.27667   0.24004  -0.15424
C          C       0.45058   0.27807   0.20830  -0.16006
C          C       0.40945   0.22063   0.19595  -0.03138
C          C       0.31642   0.20610   0.16427   0.00333
C          C       0.14997   0.21136   0.10534  -0.06095
C          C       0.17802   0.15194   0.12091  -0.12325
C          C       0.27056   0.14918   0.15386  -0.18915
C          C       0.06091   0.22995   0.07486   0.26271
C          C       0.31202   0.35097   0.49930   0.26028
C          C       0.39809   0.38096   0.52290  -0.05632
C          C       0.41710   0.39691   0.58348  -0.12063
C          C       0.51046   0.42835   0.59109  -0.19049
C          C       0.56530   0.43737   0.53661   0.00615
C          C       0.66061   0.46851   0.52632  -0.03160
C          C       0.83049   0.52515   0.53630  -0.03078
C          C       0.80302   0.51183   0.47621  -0.16757
C          C       0.70916   0.48055   0.47074  -0.14811
C          C       0.92106   0.55559   0.55739  -0.00462
C          C       0.96051   0.56079   0.61677  -0.18269
C          C       0.05227   0.59443   0.62047  -0.12383
C          C       0.08575   0.61564   0.56365  -0.06468
C          C       0.17603   0.64761   0.55051   0.26725
C          C       0.06915   0.28037   0.87132   0.26788
C          C       0.15874   0.29779   0.84067  -0.06065
C          C       0.32763   0.29904   0.78410  -0.00193
C          C       0.28361   0.35695   0.79193  -0.18879
C          C       0.18948   0.35636   0.82355  -0.12331
C          C       0.42057   0.28188   0.75365  -0.03661
C          C       0.45552   0.22333   0.74004  -0.15424
C          C       0.54941   0.22193   0.70830  -0.16005
C          C       0.59055   0.27937   0.69595  -0.03136
C          C       0.68358   0.29390   0.66427   0.00333
C          C       0.85003   0.28864   0.60533  -0.06076
C          C       0.82198   0.34806   0.62091  -0.12372
C          C       0.72944   0.35082   0.65386  -0.18889
C          C       0.93909   0.27005   0.57485   0.26279
C          C       0.68798   0.14903  -0.00070   0.26028
C          C       0.60191   0.11904   0.02290  -0.05628
C          C       0.58290   0.10309   0.08348  -0.12066
C          C       0.48954   0.07165   0.09109  -0.19034
C          C       0.43470   0.06263   0.03661   0.00611
C          C       0.33939   0.03149   0.02632  -0.03178
C          C       0.16950   0.97486   0.03631  -0.03103
C          C       0.19697   0.98817   0.97621  -0.16762
C          C       0.29084   0.01945   0.97074  -0.14822
C          C       0.07893   0.94441   0.05739  -0.00464
C          C       0.03948   0.93921   0.11677  -0.18266
C          C       0.94772   0.90557   0.12047  -0.12381
C          C       0.91424   0.88436   0.06365  -0.06440
C          C       0.82396   0.85239   0.05052   0.26694
C          C       0.43082   0.78035   0.12867   0.26673
C          C       0.34127   0.79781   0.15934  -0.06050
C          C       0.17238   0.79906   0.21589  -0.00197
C          C       0.21639   0.85697   0.20807  -0.18801
C          C       0.31053   0.85639   0.17646  -0.12346
C          C       0.07941   0.78190   0.24633  -0.03510
C          C       0.04450   0.72334   0.25994  -0.15636
C          C       0.95062   0.72193   0.29169  -0.15909
C          C       0.90945   0.77936   0.30403  -0.03122
C          C       0.81641   0.79388   0.33570   0.00295
C          C       0.64999   0.78864   0.39467  -0.06166
C          C       0.67804   0.84805   0.37908  -0.12376
C          C       0.77056   0.85081   0.34611  -0.18972
C          C       0.56095   0.77004   0.42514   0.26317
C          C       0.81188   0.64901   0.00069   0.26064
C          C       0.89796   0.61904   0.97710  -0.06033
C          C       0.91698   0.60312   0.91652  -0.11894
C          C       0.01038   0.57171   0.90891  -0.18930
C          C       0.06522   0.56269   0.96339   0.00382
C          C       0.16054   0.53155   0.97369  -0.03003
C          C       0.33046   0.47490   0.96371  -0.03303
C          C       0.30296   0.48822   0.02379  -0.16785
C          C       0.20908   0.51949   0.02927  -0.14550
C          C       0.42104   0.44442   0.94264  -0.00217
C          C       0.46048   0.43921   0.88326  -0.18457
C          C       0.55221   0.40552   0.87954  -0.12240
C          C       0.58572   0.38430   0.93635  -0.06368
C          C       0.67617   0.35246   0.94946   0.26799
C          C       0.56917   0.71965   0.62866   0.26627
C          C       0.65872   0.70219   0.65934  -0.06036
C          C       0.82761   0.70094   0.71589  -0.00199
C          C       0.78361   0.64304   0.70806  -0.18841
C          C       0.68946   0.64362   0.67646  -0.12305
C          C       0.92058   0.71810   0.74633  -0.03515
C          C       0.95549   0.77666   0.75994  -0.15589
C          C       0.04937   0.77808   0.79169  -0.15940
C          C       0.09054   0.72064   0.80403  -0.03129
C          C       0.18358   0.70612   0.83570   0.00300
C          C       0.35001   0.71136   0.89467  -0.06180
C          C       0.32195   0.65195   0.87908  -0.12397
C          C       0.22943   0.64919   0.84611  -0.18949
C          C       0.43904   0.72996   0.92514   0.26340
C          C       0.18812   0.85099   0.50069   0.26101
C          C       0.10203   0.88096   0.47711  -0.06034
C          C       0.08301   0.89688   0.41652  -0.11895
C          C       0.98962   0.92829   0.40891  -0.18935
C          C       0.93477   0.93731   0.46340   0.00395
C          C       0.83945   0.96845   0.47369  -0.03001
C          C       0.66953   0.02511   0.46371  -0.03284
C          C       0.69704   0.01178   0.52379  -0.16724
C          C       0.79091   0.98051   0.52927  -0.14547
C          C       0.57895   0.05558   0.44264  -0.00229
C          C       0.53951   0.06080   0.38326  -0.18463
C          C       0.44778   0.09448   0.37955  -0.12251
C          C       0.41428   0.11570   0.43636  -0.06363
C          C       0.32382   0.14754   0.44946   0.26793
C          C       0.06915   0.78037   0.62867   0.26772
C          C       0.15874   0.79779   0.65933  -0.06069
C          C       0.32763   0.79904   0.71589  -0.00201
C          C       0.28361   0.85695   0.70806  -0.18905
C          C       0.18947   0.85636   0.67644  -0.12296
C          C       0.42057   0.78188   0.74635  -0.03648
C          C       0.45552   0.72333   0.75996  -0.15398
C          C       0.54941   0.72193   0.79170  -0.16037
C          C       0.59055   0.77937   0.80404  -0.03129
C          C       0.68358   0.79390   0.83572   0.00335
C          C       0.85003   0.78864   0.89466  -0.06115
C          C       0.82198   0.84807   0.87908  -0.12369
C          C       0.72944   0.85083   0.84613  -0.18866
C          C       0.93909   0.77005   0.92514   0.26307
C          C       0.68797   0.64903   0.50070   0.26023
C          C       0.60191   0.61904   0.47710  -0.05623
C          C       0.58289   0.60309   0.41652  -0.12056
C          C       0.48954   0.57165   0.40890  -0.19055
C          C       0.43470   0.56263   0.46339   0.00639
C          C       0.33939   0.53149   0.47368  -0.03173
C          C       0.16950   0.47486   0.46369  -0.03064
C          C       0.19697   0.48817   0.52378  -0.16763
C          C       0.29084   0.51945   0.52925  -0.14816
C          C       0.07893   0.44441   0.44261  -0.00467
C          C       0.03949   0.43921   0.38323  -0.18259
C          C       0.94772   0.40557   0.37953  -0.12386
C          C       0.91425   0.38436   0.43634  -0.06446
C          C       0.82397   0.35239   0.44948   0.26704
C          C       0.93084   0.71963   0.12868   0.26786
C          C       0.84125   0.70221   0.15933  -0.06060
C          C       0.67237   0.70096   0.21589  -0.00195
C          C       0.71638   0.64305   0.20806  -0.18890
C          C       0.81052   0.64364   0.17644  -0.12338
C          C       0.57942   0.71812   0.24635  -0.03657
C          C       0.54447   0.77667   0.25996  -0.15426
C          C       0.45058   0.77807   0.29170  -0.16003
C          C       0.40945   0.72063   0.30404  -0.03149
C          C       0.31641   0.70610   0.33573   0.00345
C          C       0.14996   0.71136   0.39466  -0.06097
C          C       0.17801   0.65194   0.37908  -0.12312
C          C       0.27055   0.64918   0.34613  -0.18931
C          C       0.06091   0.72995   0.42514   0.26277
C          C       0.31202   0.85097   0.00070   0.26033
C          C       0.39808   0.88096   0.97710  -0.05624
C          C       0.41710   0.89691   0.91652  -0.12045
C          C       0.51045   0.92835   0.90890  -0.19076
C          C       0.56529   0.93737   0.96339   0.00617
C          C       0.66060   0.96851   0.97367  -0.03173
C          C       0.83050   0.02515   0.96369  -0.03098
C          C       0.80302   0.01183   0.02378  -0.16785
C          C       0.70916   0.98055   0.02925  -0.14819
C          C       0.92106   0.05560   0.94261  -0.00453
C          C       0.96051   0.06079   0.88323  -0.18254
C          C       0.05228   0.09443   0.87953  -0.12372
C          C       0.08575   0.11564   0.93634  -0.06453
C          C       0.17603   0.14761   0.94948   0.26712
C          C       0.56917   0.21965   0.87133   0.26647
C          C       0.65872   0.20219   0.84066  -0.06037
C          C       0.82762   0.20094   0.78411  -0.00197
C          C       0.78361   0.14304   0.79193  -0.18820
C          C       0.68946   0.14362   0.82354  -0.12336
C          C       0.92058   0.21810   0.75367  -0.03522
C          C       0.95550   0.27666   0.74006  -0.15628
C          C       0.04938   0.27808   0.70831  -0.15905
C          C       0.09054   0.22064   0.69597  -0.03120
C          C       0.18358   0.20612   0.66430   0.00297
C          C       0.35001   0.21136   0.60532  -0.06168
C          C       0.32196   0.15195   0.62092  -0.12397
C          C       0.22943   0.14919   0.65388  -0.18963
C          C       0.43904   0.22996   0.57486   0.26323
C          C       0.18812   0.35099  -0.00069   0.26088
C          C       0.10203   0.38096   0.02289  -0.06036
C          C       0.08301   0.39688   0.08348  -0.11890
C          C       0.98962   0.42829   0.09109  -0.18945
C          C       0.93477   0.43731   0.03660   0.00387
C          C       0.83946   0.46845   0.02631  -0.02990
C          C       0.66953   0.52510   0.03629  -0.03303
C          C       0.69703   0.51178   0.97620  -0.16750
C          C       0.79091   0.48051   0.97073  -0.14562
C          C       0.57895   0.55558   0.05736  -0.00216
C          C       0.53951   0.56080   0.11674  -0.18480
C          C       0.44778   0.59448   0.12045  -0.12249
C          C       0.41428   0.61570   0.06364  -0.06354
C          C       0.32382   0.64754   0.05054   0.26777
C          C       0.43083   0.28035   0.37133   0.26669
C          C       0.34127   0.29781   0.34066  -0.06043
C          C       0.17238   0.29906   0.28411  -0.00205
C          C       0.21639   0.35697   0.29193  -0.18800
C          C       0.31054   0.35639   0.32354  -0.12346
C          C       0.07942   0.28190   0.25367  -0.03506
C          C       0.04450   0.22334   0.24006  -0.15631
C          C       0.95062   0.22193   0.20831  -0.15904
C          C       0.90946   0.27936   0.19597  -0.03128
C          C       0.81642   0.29388   0.16430   0.00304
C          C       0.64999   0.28864   0.10533  -0.06162
C          C       0.67804   0.34805   0.12092  -0.12395
C          C       0.77056   0.35081   0.15388  -0.18968
C          C       0.56095   0.27004   0.07486   0.26322
C          C       0.81188   0.14901   0.49931   0.26065
C          C       0.89796   0.11904   0.52289  -0.06022
C          C       0.91698   0.10312   0.58348  -0.11893
C          C       0.01038   0.07171   0.59108  -0.18946
C          C       0.06522   0.06269   0.53660   0.00382
C          C       0.16054   0.03155   0.52631  -0.02984
C          C       0.33046   0.97490   0.53629  -0.03299
C          C       0.30296   0.98822   0.47621  -0.16737
C          C       0.20908   0.01949   0.47073  -0.14536
C          C       0.42104   0.94442   0.55735  -0.00207
C          C       0.46048   0.93921   0.61673  -0.18471
C          C       0.55221   0.90552   0.62045  -0.12275
C          C       0.58572   0.88430   0.56364  -0.06356
C          C       0.67617   0.85246   0.55054   0.26801
S          S       0.74991   0.25623   0.31806   0.15244
S          S       0.49115   0.16418   0.22582   0.09436
S          S       0.24203   0.26349   0.13129   0.14822
S          S       0.49906   0.40472   0.47574   0.15292
S          S       0.73427   0.49883   0.58624   0.09976
S          S      -0.00063   0.59486   0.50603   0.15496
S          S       0.25008   0.24378   0.81806   0.15229
S          S       0.50885   0.33582   0.72582   0.09442
S          S       0.75797   0.23651   0.63129   0.14816
S          S       0.50094   0.09528   0.97574   0.15297
S          S       0.26573   0.00117   0.08625   0.09984
S          S       0.00061   0.90514   0.00604   0.15480
S          S       0.24995   0.74380   0.18194   0.15165
S          S       0.99109   0.83583   0.27417   0.09353
S          S       0.74207   0.73650   0.36871   0.14895
S          S      -0.00105   0.59532   0.02427   0.15424
S          S       0.23423   0.50123   0.91377   0.09955
S          S       0.49935   0.40512   0.99399   0.15365
S          S       0.75004   0.75620   0.68194   0.15177
S          S       0.00890   0.66417   0.77416   0.09336
S          S       0.25792   0.76350   0.86871   0.14921
S          S       0.00104   0.90468   0.52427   0.15430
S          S       0.76576  -0.00123   0.41377   0.09945
S          S       0.50064   0.09489   0.49399   0.15379
S          S       0.25008   0.74378   0.68193   0.15232
S          S       0.50885   0.83582   0.77418   0.09438
S          S       0.75796   0.73651   0.86870   0.14817
S          S       0.50094   0.59528   0.52425   0.15266
S          S       0.26572   0.50117   0.41375   0.09989
S          S       0.00062   0.40514   0.49396   0.15461
S          S       0.74991   0.75623   0.18194   0.15250
S          S       0.49114   0.66418   0.27418   0.09435
S          S       0.24203   0.76349   0.36870   0.14823
S          S       0.49905   0.90472   0.02426   0.15268
S          S       0.73427  -0.00117   0.91375   0.10004
S          S      -0.00062   0.09486   0.99396   0.15452
S          S       0.75004   0.25620   0.81806   0.15170
S          S       0.00890   0.16417   0.72583   0.09341
S          S       0.25792   0.26350   0.63129   0.14915
S          S       0.00104   0.40468   0.97573   0.15450
S          S       0.76576   0.49877   0.08623   0.09920
S          S       0.50064   0.59488   0.00601   0.15388
S          S       0.24996   0.24380   0.31806   0.15164
S          S       0.99110   0.33583   0.22583   0.09351
S          S       0.74207   0.23650   0.13129   0.14897
S          S      -0.00105   0.09532   0.47573   0.15453
S          S       0.23423   0.00123   0.58623   0.09925
S          S       0.49935   0.90511   0.50601   0.15398
N          N       0.00673   0.23547   0.39632  -0.39659
N          N       0.98459   0.24548   0.05014  -0.39628
N          N       0.23868   0.32654   0.47915  -0.39131
N          N       0.25339   0.67325   0.53877  -0.39340
N          N       0.99327   0.26453   0.89632  -0.39660
N          N       0.01541   0.25452   0.55014  -0.39645
N          N       0.76131   0.17347   0.97915  -0.39140
N          N       0.74660   0.82674   0.03877  -0.39299
N          N       0.50668   0.76447   0.10365  -0.39522
N          N       0.48464   0.75446   0.44987  -0.39665
N          N       0.73856   0.67347   0.02083  -0.38951
N          N       0.75371   0.32698   0.96115  -0.39467
N          N       0.49331   0.73553   0.60365  -0.39469
N          N       0.51535   0.74554   0.94987  -0.39712
N          N       0.26144   0.82653   0.52083  -0.39003
N          N       0.24629   0.17303   0.46115  -0.39448
N          N       0.99327   0.76453   0.60368  -0.39627
N          N       0.01541   0.75452   0.94985  -0.39675
N          N       0.76131   0.67347   0.52085  -0.39145
N          N       0.74661   0.32675   0.46123  -0.39318
N          N       0.00673   0.73547   0.10368  -0.39669
N          N       0.98458   0.74548   0.44986  -0.39626
N          N       0.23868   0.82653   0.02084  -0.39144
N          N       0.25339   0.17326   0.96123  -0.39325
N          N       0.49331   0.23553   0.89634  -0.39492
N          N       0.51535   0.24554   0.55012  -0.39676
N          N       0.26144   0.32653   0.97917  -0.38984
N          N       0.24629   0.67302   0.03885  -0.39430
N          N       0.50669   0.26447   0.39634  -0.39518
N          N       0.48464   0.25446   0.05012  -0.39681
N          N       0.73856   0.17347   0.47917  -0.38953
N          N       0.75371   0.82697   0.53885  -0.39472

