data_crystal

_audit_creation_method 'AiiDA-DDEC plugin'

_cell_length_a        15.96168
_cell_length_b        18.81344
_cell_length_c        26.96328

_cell_angle_alpha     89.98183
_cell_angle_beta     89.99415
_cell_angle_gamma     110.52763

_symmetry_space_group_name_Hall 'P 1'
_symmetry_space_group_name_H-M  'P 1'

loop_
_symmetry_equiv_pos_as_xyz
 'x,y,z'

loop_
_atom_site_label
_atom_site_type_symbol
_atom_site_fract_x
_atom_site_fract_y
_atom_site_fract_z
_atom_site_charge
Ca         Ca      0.04071   0.02001   0.56996   1.42273
Ca         Ca      0.72599   0.55673   0.05619   1.41933
Ca         Ca      0.95806   0.47810   0.06961   1.41768
Ca         Ca      0.27427   0.94229   0.55772   1.41943
Ca         Ca      0.95929   0.97998   0.43003   1.42281
Ca         Ca      0.27400   0.44326   0.94381   1.41931
Ca         Ca      0.04193   0.52190   0.93039   1.41758
Ca         Ca      0.72573   0.05771   0.44228   1.41949
Ca         Ca      0.50000   0.50000   0.00000   1.48157
Ca         Ca      0.50000  -0.00000   0.50000   1.47433
H          H       0.87331   0.02557   0.52161   0.41405
H          H       0.94428   0.08280   0.48663   0.39059
H          H       0.09755   0.12282   0.66814   0.36826
H          H       0.60917   0.15459   0.67705   0.10659
H          H       0.77609   0.30018   0.78756   0.11048
H          H       0.49672   0.26910   0.78149   0.10449
H          H       0.37239   0.17864   0.76273   0.11460
H          H       0.22936   0.11926   0.71801   0.11743
H          H       0.37416   0.10120   0.58661   0.10855
H          H       0.51557   0.15948   0.63066   0.10595
H          H       0.72997   0.19443   0.63313   0.10531
H          H       0.84983   0.15092   0.60176   0.12324
H          H       0.96955   0.18285   0.74704   0.12023
H          H       0.84614   0.21994   0.77961   0.10619
H          H       0.77965   0.41316   0.81419   0.11452
H          H       0.80318   0.48797   0.89161   0.11172
H          H       0.54226   0.34775   0.94305   0.11540
H          H       0.51971   0.27088   0.86609   0.11271
H          H       0.80244   0.00146   0.91692   0.11212
H          H       0.70193   0.09585   0.79540   0.10731
H          H       0.61051   0.85385   0.81573   0.10495
H          H       0.56213   0.79697   0.89537   0.11034
H          H       0.55909   0.69074   0.95141   0.11379
H          H       0.84302   0.79060   0.97100   0.12071
H          H       0.84746   0.89598   0.91350   0.11067
H          H       0.93844   0.11606   0.87827   0.11176
H          H       0.02707   0.25031   0.90215   0.12129
H          H       0.78854   0.30596   0.89611   0.11038
H          H       0.69968   0.17264   0.87192   0.11768
H          H       0.70818   0.04392   0.71374   0.10093
H          H       0.61937   0.04041   0.63720   0.10611
H          H       0.38431   0.88965   0.70818   0.11672
H          H       0.47325   0.88889   0.78462   0.10972
H          H       0.12831   0.47463   0.02259   0.41564
H          H       0.05873   0.41844   0.98657   0.39144
H          H       0.89903   0.37154   0.16603   0.36871
H          H       0.38941   0.34538   0.17977   0.10495
H          H       0.22291   0.19906   0.29022   0.11129
H          H       0.50148   0.22758   0.28204   0.10568
H          H       0.62653   0.31552   0.26186   0.11401
H          H       0.76845   0.37372   0.21611   0.11828
H          H       0.62116   0.39593   0.08671   0.10888
H          H       0.48059   0.33889   0.13207   0.10524
H          H       0.27104   0.30593   0.13588   0.10509
H          H       0.15267   0.35021   0.10346   0.12205
H          H       0.02703   0.31468   0.24726   0.11950
H          H       0.14986   0.27792   0.28115   0.10649
H          H       0.21917   0.08573   0.31643   0.11462
H          H       0.19621   0.01113   0.39411   0.10985
H          H       0.45840   0.14998   0.44424   0.11422
H          H       0.48080   0.22660   0.36712   0.11392
H          H       0.19955   0.50071   0.41640   0.11328
H          H       0.29886   0.40714   0.29410   0.10758
H          H       0.39278   0.64889   0.31599   0.10479
H          H       0.44062   0.70613   0.39542   0.11041
H          H       0.44307   0.81113   0.45240   0.11411
H          H       0.15974   0.70899   0.47312   0.12090
H          H       0.15555   0.60501   0.41459   0.11098
H          H       0.06289   0.38718   0.37803   0.11137
H          H       0.97467   0.25375   0.40392   0.12170
H          H       0.21165   0.19647   0.39543   0.11062
H          H       0.30043   0.32918   0.36959   0.11476
H          H       0.29498   0.45825   0.21342   0.10123
H          H       0.38396   0.46136   0.13719   0.10716
H          H       0.61829   0.61390   0.20795   0.11590
H          H       0.52882   0.61478   0.28408   0.10926
H          H       0.12669   0.97442   0.47839   0.41400
H          H       0.05572   0.91719   0.51337   0.39067
H          H       0.90245   0.87718   0.33185   0.36825
H          H       0.39083   0.84540   0.32295   0.10640
H          H       0.22390   0.69981   0.21244   0.11066
H          H       0.50327   0.73089   0.21851   0.10454
H          H       0.62761   0.82135   0.23727   0.11474
H          H       0.77063   0.88074   0.28199   0.11741
H          H       0.62584   0.89879   0.41339   0.10850
H          H       0.48443   0.84051   0.36934   0.10606
H          H       0.27002   0.80556   0.36687   0.10516
H          H       0.15016   0.84908   0.39824   0.12311
H          H       0.03045   0.81715   0.25295   0.12038
H          H       0.15386   0.78006   0.22038   0.10634
H          H       0.22034   0.58684   0.18581   0.11461
H          H       0.19681   0.51203   0.10839   0.11186
H          H       0.45774   0.65224   0.05695   0.11532
H          H       0.48029   0.72911   0.13391   0.11258
H          H       0.19755  -0.00146   0.08308   0.11232
H          H       0.29806   0.90415   0.20460   0.10740
H          H       0.38949   0.14615   0.18427   0.10465
H          H       0.43787   0.20303   0.10463   0.11023
H          H       0.44090   0.30925   0.04859   0.11361
H          H       0.15698   0.20940   0.02900   0.12085
H          H       0.15253   0.10402   0.08650   0.11090
H          H       0.06156   0.88394   0.12172   0.11174
H          H       0.97292   0.74969   0.09785   0.12136
H          H       0.21145   0.69404   0.10389   0.11042
H          H       0.30032   0.82735   0.12808   0.11749
H          H       0.29182   0.95608   0.28626   0.10101
H          H       0.38063   0.95959   0.36280   0.10615
H          H       0.61569   0.11035   0.29182   0.11656
H          H       0.52675   0.11110   0.21538   0.10969
H          H       0.87168   0.52537   0.97740   0.41569
H          H       0.94127   0.58156   0.01343   0.39119
H          H       0.10097   0.62845   0.83396   0.36873
H          H       0.61059   0.65461   0.82023   0.10497
H          H       0.77709   0.80094   0.70978   0.11119
H          H       0.49852   0.77242   0.71796   0.10579
H          H       0.37347   0.68448   0.73814   0.11403
H          H       0.23154   0.62627   0.78389   0.11837
H          H       0.37883   0.60407   0.91329   0.10885
H          H       0.51941   0.66111   0.86793   0.10515
H          H       0.72895   0.69407   0.86412   0.10513
H          H       0.84733   0.64979   0.89654   0.12203
H          H       0.97297   0.68532   0.75274   0.11952
H          H       0.85014   0.72208   0.71885   0.10660
H          H       0.78083   0.91427   0.68357   0.11440
H          H       0.80379   0.98886   0.60589   0.10969
H          H       0.54159   0.85002   0.55575   0.11446
H          H       0.51919   0.77340   0.63288   0.11402
H          H       0.80045   0.49929   0.58359   0.11328
H          H       0.70113   0.59286   0.70589   0.10739
H          H       0.60722   0.35110   0.68400   0.10482
H          H       0.55938   0.29387   0.60458   0.11036
H          H       0.55692   0.18886   0.54759   0.11435
H          H       0.84025   0.29100   0.52688   0.12078
H          H       0.84445   0.39498   0.58541   0.11081
H          H       0.93710   0.61281   0.62197   0.11140
H          H       0.02533   0.74625   0.59607   0.12145
H          H       0.78835   0.80353   0.60457   0.11068
H          H       0.69956   0.67082   0.63041   0.11486
H          H       0.70502   0.54175   0.78657   0.10108
H          H       0.61603   0.53863   0.86280   0.10693
H          H       0.38171   0.38609   0.79205   0.11617
H          H       0.47118   0.38522   0.71592   0.10947
C          C       0.54229   0.20820   0.72566   0.06495
C          C       0.61740   0.19441   0.70731  -0.17064
C          C       0.70209   0.22740   0.72870   0.06803
C          C       0.71108   0.27468   0.77005  -0.17251
C          C       0.63698   0.28840   0.79003   0.07036
C          C       0.55298   0.25528   0.76738  -0.17636
C          C       0.45542   0.17375   0.70020   0.08248
C          C       0.37320   0.16256   0.72404  -0.13604
C          C       0.29259   0.12884   0.69912  -0.08406
C          C       0.29203   0.10519   0.64967  -0.06707
C          C       0.37350   0.11720   0.62537  -0.08390
C          C       0.45353   0.15079   0.65036  -0.12941
C          C       0.20735   0.06660   0.62316   0.59317
C          C       0.77828   0.20904   0.70891   0.08227
C          C       0.78096   0.19009   0.65848  -0.12847
C          C       0.84870   0.16673   0.64051  -0.08003
C          C       0.91711   0.16390   0.67240  -0.07265
C          C       0.91678   0.18520   0.72236  -0.08365
C          C       0.84771   0.20687   0.74038  -0.13583
C          C       0.98697   0.13674   0.65313   0.59901
C          C       0.64841   0.33607   0.83481   0.07862
C          C       0.72809   0.39790   0.84264  -0.12648
C          C       0.74130   0.44037   0.88595  -0.07014
C          C       0.67447   0.42241   0.92246  -0.05958
C          C       0.59398   0.36167   0.91469  -0.08158
C          C       0.58128   0.31904   0.87136  -0.13535
C          C       0.68937   0.46792   0.96858   0.59902
C          C       0.70612   0.92001   0.86989   0.07168
C          C       0.76152   0.99358   0.88369  -0.19112
C          C       0.75990   0.05736   0.85739   0.07053
C          C       0.70397   0.04670   0.81595  -0.18536
C          C       0.65033   0.97377   0.80032   0.07809
C          C       0.65081   0.91069   0.82797  -0.18285
C          C       0.70489   0.85451   0.90074   0.07804
C          C       0.62403   0.79518   0.91125  -0.14072
C          C       0.62205   0.73585   0.94281  -0.10057
C          C       0.70100   0.73439   0.96491  -0.04405
C          C       0.78212   0.79287   0.95412  -0.09029
C          C       0.78403   0.85171   0.92232  -0.14085
C          C       0.70080   0.67224  -0.00045   0.58821
C          C       0.81330   0.13550   0.87320   0.07842
C          C       0.90569   0.15764   0.88250  -0.14557
C          C       0.95536   0.23237   0.89560  -0.09154
C          C       0.91307   0.28607   0.90013  -0.05430
C          C       0.82058   0.26396   0.89180  -0.08968
C          C       0.77140   0.18967   0.87819  -0.14546
C          C       0.96427   0.36649   0.91356   0.56187
C          C       0.59665   0.96721   0.75469   0.07345
C          C       0.63722   0.01006   0.71281  -0.13639
C          C       0.58804   0.00862   0.67005  -0.09279
C          C       0.49655   0.96575   0.66840  -0.04895
C          C       0.45558   0.92223   0.70987  -0.09459
C          C       0.50536   0.92213   0.75236  -0.14101
C          C       0.44379   0.96790   0.62298   0.60813
C          C       0.45609   0.28985   0.22706   0.06717
C          C       0.38117   0.30486   0.20962  -0.17222
C          C       0.29655   0.27195   0.23119   0.06910
C          C       0.28771   0.22438   0.27239  -0.17412
C          C       0.36189   0.21004   0.29178   0.07175
C          C       0.44551   0.24239   0.26857  -0.17910
C          C       0.54230   0.32313   0.20071   0.08155
C          C       0.62498   0.33252   0.22343  -0.13540
C          C       0.70501   0.36552   0.19781  -0.08572
C          C       0.70437   0.39011   0.14861  -0.06416
C          C       0.62238   0.37936   0.12531  -0.08506
C          C       0.54301   0.34661   0.15106  -0.12930
C          C       0.78829   0.42796   0.12112   0.59502
C          C       0.22049   0.29039   0.21119   0.08231
C          C       0.21933   0.31003   0.16077  -0.12992
C          C       0.15223   0.33359   0.14216  -0.07976
C          C       0.08235   0.33520   0.17331  -0.07272
C          C       0.08092   0.31304   0.22318  -0.08274
C          C       0.14974   0.29163   0.24195  -0.13621
C          C       0.01297   0.36225   0.15323   0.59780
C          C       0.35107   0.16222   0.33647   0.07724
C          C       0.27113   0.10076   0.34466  -0.12698
C          C       0.25816   0.05854   0.38809  -0.07023
C          C       0.32540   0.07647   0.42437  -0.05868
C          C       0.40630   0.13650   0.41610  -0.08190
C          C       0.41886   0.17887   0.37264  -0.13356
C          C       0.31043   0.03190   0.47089   0.59398
C          C       0.29647   0.58246   0.36978   0.07029
C          C       0.24049   0.50886   0.38317  -0.18986
C          C       0.24131   0.44528   0.35639   0.06896
C          C       0.29727   0.45615   0.31496  -0.18423
C          C       0.35172   0.52911   0.29977   0.07809
C          C       0.35196   0.59199   0.32790  -0.18393
C          C       0.29791   0.64747   0.40118   0.07798
C          C       0.37861   0.70701   0.41170  -0.13997
C          C       0.38041   0.76567   0.44379  -0.10108
C          C       0.30152   0.76616   0.46650  -0.04386
C          C       0.22061   0.70749   0.45577  -0.08890
C          C       0.21885   0.64940   0.42339  -0.14143
C          C       0.30166   0.82761   0.50164   0.58841
C          C       0.18758   0.36723   0.37220   0.07838
C          C       0.09552   0.34556   0.38236  -0.14468
C          C       0.04602   0.27122   0.39633  -0.09163
C          C       0.08813   0.21739   0.40072  -0.05368
C          C       0.18008   0.23880   0.39116  -0.09066
C          C       0.22911   0.31278   0.37685  -0.14232
C          C       0.03709   0.13772   0.41572   0.56204
C          C       0.40579   0.53571   0.25426   0.07351
C          C       0.36584   0.49238   0.21245  -0.13600
C          C       0.41536   0.49364   0.16985  -0.09344
C          C       0.50685   0.53677   0.16822  -0.04811
C          C       0.54712   0.58095   0.20957  -0.09464
C          C       0.49693   0.58117   0.25192  -0.13933
C          C       0.55999   0.53407   0.12299   0.60830
C          C       0.45771   0.79179   0.27433   0.06501
C          C       0.38260   0.80559   0.29269  -0.17075
C          C       0.29791   0.77259   0.27130   0.06813
C          C       0.28892   0.72532   0.22995  -0.17254
C          C       0.36301   0.71160   0.20997   0.07043
C          C       0.44702   0.74471   0.23262  -0.17643
C          C       0.54457   0.82625   0.29980   0.08239
C          C       0.62679   0.83744   0.27596  -0.13608
C          C       0.70741   0.87115   0.30087  -0.08410
C          C       0.70797   0.89481   0.35033  -0.06698
C          C       0.62649   0.88280   0.37463  -0.08411
C          C       0.54646   0.84920   0.34964  -0.12930
C          C       0.79264   0.93340   0.37684   0.59313
C          C       0.22171   0.79096   0.29109   0.08225
C          C       0.21903   0.80990   0.34151  -0.12834
C          C       0.15130   0.83327   0.35949  -0.08035
C          C       0.08288   0.83609   0.32759  -0.07245
C          C       0.08322   0.81479   0.27764  -0.08351
C          C       0.15229   0.79312   0.25962  -0.13584
C          C       0.01303   0.86326   0.34687   0.59867
C          C       0.35159   0.66392   0.16519   0.07864
C          C       0.27191   0.60209   0.15736  -0.12659
C          C       0.25870   0.55962   0.11405  -0.07000
C          C       0.32553   0.57758   0.07754  -0.05945
C          C       0.40602   0.63832   0.08531  -0.08148
C          C       0.41871   0.68095   0.12863  -0.13560
C          C       0.31062   0.53207   0.03142   0.59864
C          C       0.29387   0.07999   0.13011   0.07145
C          C       0.23848   0.00641   0.11630  -0.19087
C          C       0.24010   0.94263   0.14261   0.07045
C          C       0.29603   0.95330   0.18405  -0.18548
C          C       0.34966   0.02622   0.19968   0.07807
C          C       0.34918   0.08930   0.17203  -0.18277
C          C       0.29510   0.14549   0.09926   0.07807
C          C       0.37597   0.20482   0.08875  -0.14084
C          C       0.37794   0.26414   0.05718  -0.10049
C          C       0.29899   0.26561   0.03509  -0.04394
C          C       0.21788   0.20713   0.04588  -0.09025
C          C       0.21597   0.14828   0.07768  -0.14088
C          C       0.29919   0.32775   0.00045   0.58798
C          C       0.18670   0.86450   0.12680   0.07839
C          C       0.09430   0.84236   0.11750  -0.14567
C          C       0.04464   0.76763   0.10440  -0.09129
C          C       0.08692   0.71392   0.09987  -0.05438
C          C       0.17942   0.73604   0.10820  -0.08954
C          C       0.22859   0.81033   0.12181  -0.14550
C          C       0.03572   0.63351   0.08644   0.56168
C          C       0.40335   0.03279   0.24531   0.07348
C          C       0.36277   0.98994   0.28719  -0.13622
C          C       0.41195   0.99137   0.32995  -0.09270
C          C       0.50345   0.03425   0.33159  -0.04906
C          C       0.54442   0.07776   0.29013  -0.09478
C          C       0.49463   0.07786   0.24764  -0.14087
C          C       0.55620   0.03210   0.37702   0.60812
C          C       0.54391   0.71015   0.77294   0.06725
C          C       0.61882   0.69514   0.79038  -0.17225
C          C       0.70345   0.72805   0.76881   0.06905
C          C       0.71228   0.77562   0.72760  -0.17416
C          C       0.63811   0.78996   0.70822   0.07179
C          C       0.55448   0.75760   0.73143  -0.17910
C          C       0.45770   0.67687   0.79929   0.08150
C          C       0.37502   0.66748   0.77656  -0.13527
C          C       0.29498   0.63447   0.80218  -0.08560
C          C       0.29563   0.60989   0.85139  -0.06398
C          C       0.37762   0.62064   0.87469  -0.08512
C          C       0.45699   0.65339   0.84894  -0.12953
C          C       0.21171   0.57203   0.87888   0.59465
C          C       0.77950   0.70961   0.78881   0.08229
C          C       0.78067   0.68996   0.83923  -0.12997
C          C       0.84776   0.66641   0.85784  -0.07983
C          C       0.91765   0.66479   0.82669  -0.07267
C          C       0.91907   0.68696   0.77682  -0.08265
C          C       0.85026   0.70837   0.75805  -0.13636
C          C       0.98702   0.63775   0.84677   0.59767
C          C       0.64893   0.83777   0.66353   0.07709
C          C       0.72887   0.89923   0.65534  -0.12696
C          C       0.74183   0.94145   0.61191  -0.07023
C          C       0.67460   0.92352   0.57563  -0.05874
C          C       0.59369   0.86349   0.58390  -0.08189
C          C       0.58114   0.82112   0.62736  -0.13337
C          C       0.68957   0.96810   0.52911   0.59403
C          C       0.70352   0.41754   0.63022   0.07019
C          C       0.75951   0.49114   0.61683  -0.18982
C          C       0.75869   0.55472   0.64360   0.06886
C          C       0.70272   0.54385   0.68504  -0.18419
C          C       0.64828   0.47089   0.70023   0.07803
C          C       0.64804   0.40801   0.67210  -0.18362
C          C       0.70208   0.35253   0.59881   0.07805
C          C       0.62139   0.29299   0.58830  -0.13975
C          C       0.61959   0.23432   0.55620  -0.10122
C          C       0.69847   0.23383   0.53350  -0.04374
C          C       0.77939   0.29251   0.54423  -0.08877
C          C       0.78114   0.35060   0.57660  -0.14167
C          C       0.69833   0.17238   0.49836   0.58839
C          C       0.81242   0.63277   0.62780   0.07850
C          C       0.90447   0.65443   0.61764  -0.14477
C          C       0.95398   0.72877   0.60367  -0.09141
C          C       0.91187   0.78261   0.59928  -0.05372
C          C       0.81991   0.76120   0.60884  -0.09079
C          C       0.77088   0.68721   0.62315  -0.14221
C          C       0.96291   0.86228   0.58427   0.56203
C          C       0.59421   0.46429   0.74574   0.07336
C          C       0.63415   0.50761   0.78755  -0.13603
C          C       0.58463   0.50635   0.83015  -0.09348
C          C       0.49315   0.46322   0.83177  -0.04818
C          C       0.45288   0.41905   0.79042  -0.09482
C          C       0.50306   0.41882   0.74808  -0.13906
C          C       0.44001   0.46592   0.87701   0.60849
O          O       0.93696   0.03947   0.50995  -0.86096
O          O       0.13279   0.06730   0.64079  -0.63006
O          O       0.20729   0.03224   0.58208  -0.66834
O          O       0.97904   0.10320   0.61237  -0.58767
O          O       0.05779   0.15015   0.68260  -0.47621
O          O       0.76649   0.51810   0.97715  -0.61567
O          O       0.62498   0.45734  -0.00019  -0.68965
O          O       0.62876   0.61387   0.00499  -0.70618
O          O       0.77288   0.67868   0.02254  -0.61681
O          O       0.04869   0.38810   0.92327  -0.64560
O          O       0.92187   0.41306   0.91525  -0.61931
O          O       0.48665   0.00311   0.58496  -0.68034
O          O       0.35878   0.93580   0.62493  -0.65177
O          O       0.06523   0.46126   0.00975  -0.85552
O          O       0.86292   0.42648   0.13818  -0.63339
O          O       0.78779   0.46218   0.08005  -0.66572
O          O       0.02456   0.39989   0.11396  -0.58350
O          O       0.93858   0.34388   0.18030  -0.47604
O          O       0.23332   0.98191   0.47965  -0.61406
O          O       0.37481   0.04291   0.50225  -0.68717
O          O       0.37380   0.88585   0.50732  -0.70637
O          O       0.22957   0.82086   0.52476  -0.61546
O          O       0.95382   0.11805   0.42750  -0.63493
O          O       0.07833   0.09022   0.41680  -0.62340
O          O       0.51711   0.49986   0.08471  -0.68506
O          O       0.64514   0.56458   0.12506  -0.64975
O          O       0.06304   0.96053   0.49005  -0.86093
O          O       0.86721   0.93269   0.35921  -0.63011
O          O       0.79270   0.96775   0.41792  -0.66848
O          O       0.02095   0.89680   0.38763  -0.58784
O          O       0.94221   0.84985   0.31740  -0.47573
O          O       0.23351   0.48190   0.02285  -0.61524
O          O       0.37501   0.54266   0.00019  -0.68959
O          O       0.37123   0.38613   0.99501  -0.70640
O          O       0.22711   0.32131   0.97746  -0.61640
O          O       0.95131   0.61190   0.07673  -0.64534
O          O       0.07812   0.58693   0.08475  -0.61925
O          O       0.51334   0.99688   0.41504  -0.68019
O          O       0.64122   0.06420   0.37507  -0.65197
O          O       0.93476   0.53874   0.99025  -0.85529
O          O       0.13708   0.57352   0.86182  -0.63301
O          O       0.21220   0.53782   0.91995  -0.66571
O          O       0.97543   0.60011   0.88603  -0.58348
O          O       0.06142   0.65612   0.81970  -0.47608
O          O       0.76668   0.01809   0.52035  -0.61440
O          O       0.62518   0.95708   0.49775  -0.68682
O          O       0.62620   0.11415   0.49268  -0.70609
O          O       0.77043   0.17914   0.47524  -0.61566
O          O       0.04617   0.88195   0.57250  -0.63505
O          O       0.92166   0.90978   0.58319  -0.62335
O          O       0.48289   0.50013   0.91529  -0.68537
O          O       0.35485   0.43541   0.87494  -0.64952

