data_crystal

_audit_creation_method 'AiiDA-DDEC plugin'

_cell_length_a        26.91586
_cell_length_b        27.62067
_cell_length_c        27.07949

_cell_angle_alpha     90.02284
_cell_angle_beta     89.97582
_cell_angle_gamma     90.00184

_symmetry_space_group_name_Hall 'P 1'
_symmetry_space_group_name_H-M  'P 1'

loop_
_symmetry_equiv_pos_as_xyz
 'x,y,z'

loop_
_atom_site_label
_atom_site_type_symbol
_atom_site_fract_x
_atom_site_fract_y
_atom_site_fract_z
_atom_site_charge
Zn         Zn      0.77415   0.27496   0.46375   0.92997
Zn         Zn      0.70606   0.18922   0.43423   0.90119
Zn         Zn      0.05636   0.79382   0.27788   0.90011
Zn         Zn      0.04885   0.20630   0.29375   0.92197
Zn         Zn      0.72614   0.27479   0.03609   0.93623
Zn         Zn      0.79395   0.18899   0.06613   0.89798
Zn         Zn      0.44386   0.79388   0.22369   0.89943
Zn         Zn      0.45121   0.20636   0.20591   0.92097
Zn         Zn      0.27381   0.22676   0.53630   0.93041
Zn         Zn      0.20591   0.31160   0.56606   0.89775
Zn         Zn      0.55636   0.70593   0.72165   0.90033
Zn         Zn      0.54890   0.29383   0.70631   0.92426
Zn         Zn      0.22578   0.22674   0.96376   0.92787
Zn         Zn      0.29391   0.31200   0.93372   0.90337
Zn         Zn      0.94365   0.70664   0.77667   0.89507
Zn         Zn      0.95090   0.29396   0.79376   0.91730
Zn         Zn      0.22574   0.72682   0.53625   0.92944
Zn         Zn      0.29393   0.81232   0.56648   0.90323
Zn         Zn      0.94369   0.20799   0.72322   0.88967
Zn         Zn      0.95057   0.79389   0.70614   0.91756
Zn         Zn      0.27373   0.72510   0.96365   0.92653
Zn         Zn      0.20617   0.81065   0.93406   0.90078
Zn         Zn      0.55631   0.20600   0.77859   0.90101
Zn         Zn      0.54885   0.79382   0.79376   0.92198
Zn         Zn      0.72582   0.77363   0.46370   0.92738
Zn         Zn      0.79343   0.68906   0.43358   0.89929
Zn         Zn      0.44403   0.29434   0.27649   0.89584
Zn         Zn      0.44843   0.70598   0.29583   0.92191
Zn         Zn      0.77417   0.77489   0.03624   0.92924
Zn         Zn      0.70628   0.68940   0.06587   0.90049
Zn         Zn      0.05634   0.29407   0.22156   0.90082
Zn         Zn      0.04893   0.70634   0.20600   0.92177
H          H       0.89932   0.21698   0.36880   0.14231
H          H       0.96496   0.07539   0.35693   0.14467
H          H       0.81998   0.09205   0.42321   0.14106
H          H       0.92981   0.99380   0.34203   0.15242
H          H       0.96136   0.90489   0.34646   0.13165
H          H       0.90221   0.76057   0.34752   0.14381
H          H       0.82152   0.87619   0.41890   0.13510
H          H       0.84250   0.26589   0.61663   0.14278
H          H       0.90980   0.38964   0.68731   0.13240
H          H       0.83590   0.40538   0.54680   0.13239
H          H       0.83596   0.50016   0.57111   0.15272
H          H       0.85413   0.57602   0.53310   0.14333
H          H       0.86720   0.72278   0.58480   0.14534
H          H       0.91983   0.60481   0.67547   0.14333
H          H       0.60144   0.21681   0.13101   0.14285
H          H       0.53457   0.07578   0.14299   0.14161
H          H       0.67986   0.09097   0.07721   0.14019
H          H       0.56953   0.99377   0.15809   0.15217
H          H       0.53798   0.90490   0.15373   0.13177
H          H       0.59756   0.76075   0.15243   0.14375
H          H       0.67813   0.87677   0.08169   0.13516
H          H       0.65666   0.26551   0.88351   0.14205
H          H       0.58941   0.38936   0.81316   0.13196
H          H       0.66439   0.40511   0.95311   0.12899
H          H       0.66396   0.50008   0.92875   0.15263
H          H       0.64586   0.57608   0.96642   0.14027
H          H       0.63206   0.72254   0.91428   0.14589
H          H       0.57992   0.60407   0.82394   0.14149
H          H       0.39821   0.28365   0.63217   0.14215
H          H       0.46564   0.42462   0.64299   0.14252
H          H       0.32013   0.40929   0.57774   0.14053
H          H       0.43002   0.50713   0.65783   0.15264
H          H       0.46131   0.59522   0.65235   0.12808
H          H       0.40239   0.73964   0.65216   0.14370
H          H       0.32100   0.62422   0.58121   0.13451
H          H       0.34465   0.23595   0.38321   0.14177
H          H       0.41049   0.11112   0.31326   0.13167
H          H       0.33610   0.09684   0.45375   0.12927
H          H       0.33605   0.00103   0.42935   0.15266
H          H       0.35445   0.92527   0.46707   0.13936
H          H       0.36834   0.77860   0.41562   0.14406
H          H       0.42019   0.89664   0.32453   0.14263
H          H       0.10060   0.28317   0.86863   0.14494
H          H       0.03452   0.42455   0.85656   0.14097
H          H       0.17952   0.40852   0.92276   0.14036
H          H       0.06918   0.50595   0.84182   0.15258
H          H       0.03787   0.59511   0.84568   0.12798
H          H       0.09720   0.73934   0.84787   0.14320
H          H       0.17721   0.62313   0.91901   0.13419
H          H       0.15625   0.23531   0.11682   0.14163
H          H       0.08984   0.11075   0.18664   0.13226
H          H       0.16388   0.09632   0.04594   0.12803
H          H       0.16408   0.00030   0.07072   0.15653
H          H       0.14604   0.92431   0.03341   0.14240
H          H       0.13215   0.77791   0.08556   0.14831
H          H       0.07982   0.89638   0.17586   0.14190
H          H       0.10059   0.78341   0.63174   0.14284
H          H       0.03430   0.92477   0.64350   0.14106
H          H       0.17975   0.90873   0.57807   0.14075
H          H       0.06918   0.00665   0.65833   0.15595
H          H       0.03725   0.09584   0.65293   0.13181
H          H       0.09661   0.24008   0.65133   0.14323
H          H       0.17752   0.12386   0.58114   0.13458
H          H       0.15671   0.73532   0.38279   0.14180
H          H       0.09053   0.61073   0.31274   0.13202
H          H       0.16330   0.59648   0.45403   0.12928
H          H       0.16404   0.50034   0.42894   0.15218
H          H       0.14574   0.42416   0.46632   0.14314
H          H       0.13179   0.27779   0.41397   0.14410
H          H       0.07966   0.39638   0.32386   0.14136
H          H       0.39969   0.78290   0.86897   0.14249
H          H       0.46464   0.92476   0.85657   0.14084
H          H       0.31975   0.90770   0.92290   0.14120
H          H       0.42956   0.00644   0.84223   0.15218
H          H       0.46081   0.09458   0.84735   0.12770
H          H       0.40249   0.23921   0.84776   0.13912
H          H       0.32056   0.12408   0.91858   0.13550
H          H       0.34238   0.73547   0.11698   0.14200
H          H       0.40884   0.61164   0.18807   0.13185
H          H       0.33617   0.59603   0.04688   0.12887
H          H       0.33583   0.50124   0.07114   0.15293
H          H       0.35448   0.42501   0.03277   0.14007
H          H       0.36916   0.27849   0.08445   0.14409
H          H       0.41984   0.39714   0.17546   0.14225
H          H       0.59953   0.71708   0.36855   0.14253
H          H       0.53350   0.57548   0.35762   0.14083
H          H       0.67968   0.59185   0.42104   0.14075
H          H       0.56957   0.49361   0.34166   0.15197
H          H       0.53835   0.40531   0.34658   0.13164
H          H       0.59775   0.26106   0.34702   0.14325
H          H       0.67841   0.37675   0.41835   0.13502
H          H       0.65608   0.76486   0.61665   0.13744
H          H       0.58988   0.88931   0.68690   0.13208
H          H       0.66388   0.90406   0.54624   0.12815
H          H       0.66401   0.00005   0.57111   0.15276
H          H       0.64472   0.07615   0.53344   0.14343
H          H       0.63257   0.22251   0.58633   0.14338
H          H       0.58091   0.10403   0.67692   0.14213
H          H       0.89946   0.71721   0.13119   0.14645
H          H       0.96482   0.57550   0.14326   0.14525
H          H       0.81995   0.59231   0.07693   0.14103
H          H       0.92969   0.49387   0.15781   0.15238
H          H       0.96125   0.40549   0.15305   0.12753
H          H       0.90286   0.26087   0.15170   0.13993
H          H       0.82172   0.37618   0.08046   0.13503
H          H       0.84249   0.76563   0.88354   0.14235
H          H       0.90971   0.88926   0.81263   0.13240
H          H       0.83577   0.90521   0.95318   0.13275
H          H       0.83597   0.00002   0.92885   0.15283
H          H       0.85422   0.07614   0.96669   0.14395
H          H       0.86803   0.22263   0.91473   0.14394
H          H       0.91991   0.10422   0.82406   0.14207
C          C       0.81305   0.18811   0.41657   0.60425
C          C       0.85571   0.15803   0.39912  -0.02167
C          C       0.89702   0.17823   0.37542  -0.10047
C          C       0.93552   0.14783   0.35936  -0.00553
C          C       0.97887   0.16927   0.33294   0.54991
C          C       0.93366   0.09776   0.36815  -0.16942
C          C       0.89169   0.07811   0.39108   0.14008
C          C       0.85259   0.10791   0.40608  -0.15260
C          C       0.90571   0.98926   0.37365  -0.16112
C          C       0.88478   0.94870   0.39553   0.08753
C          C       0.88989   0.89742   0.38295   0.05747
C          C       0.93129   0.88056   0.35670  -0.12300
C          C       0.93558   0.83160   0.34388  -0.02717
C          C       0.98102   0.81534   0.31774   0.55423
C          C       0.89860   0.79858   0.35732  -0.09722
C          C       0.85772   0.81502   0.38472  -0.04649
C          C       0.81981   0.78001   0.40256   0.60397
C          C       0.85332   0.86406   0.39743  -0.10265
C          C       0.80975   0.31235   0.53504   0.55323
C          C       0.83557   0.33409   0.57835  -0.02530
C          C       0.85079   0.30440   0.61744  -0.09777
C          C       0.87796   0.32470   0.65651  -0.04628
C          C       0.89858   0.29349   0.69627   0.60181
C          C       0.88861   0.37428   0.65696  -0.10226
C          C       0.87317   0.40436   0.61811   0.05394
C          C       0.84702   0.38370   0.57848  -0.12122
C          C       0.88619   0.45582   0.62038   0.09002
C          C       0.86638   0.49591   0.59680  -0.16273
C          C       0.88667   0.58467   0.60600   0.13802
C          C       0.86519   0.60094   0.56217  -0.16691
C          C       0.85768   0.65071   0.55517  -0.00723
C          C       0.83322   0.66713   0.50899   0.55697
C          C       0.87315   0.68428   0.59074  -0.09823
C          C       0.89647   0.66755   0.63368  -0.02609
C          C       0.91484   0.70158   0.67252   0.60048
C          C       0.90261   0.61772   0.64171  -0.14676
C          C       0.68802   0.18665   0.08349   0.60620
C          C       0.64478   0.15739   0.10097  -0.02255
C          C       0.60354   0.17802   0.12450  -0.10185
C          C       0.56462   0.14798   0.14029  -0.00526
C          C       0.52094   0.16955   0.16598   0.54998
C          C       0.56610   0.09785   0.13180  -0.16552
C          C       0.60796   0.07789   0.10905   0.13971
C          C       0.64739   0.10725   0.09417  -0.15234
C          C       0.59366   0.98925   0.12648  -0.16057
C          C       0.61465   0.94869   0.10470   0.08804
C          C       0.60957   0.89753   0.11737   0.05737
C          C       0.56813   0.88064   0.14349  -0.12343
C          C       0.56403   0.83164   0.15616  -0.02810
C          C       0.51869   0.81524   0.18244   0.55402
C          C       0.60116   0.79876   0.14270  -0.09707
C          C       0.64212   0.81530   0.11548  -0.04750
C          C       0.68019   0.78054   0.09743   0.60420
C          C       0.64634   0.86438   0.10297  -0.10232
C          C       0.69015   0.31208   0.96490   0.55376
C          C       0.66413   0.33377   0.92170  -0.02470
C          C       0.64850   0.30404   0.88276  -0.09825
C          C       0.62116   0.32435   0.84381  -0.04593
C          C       0.60020   0.29319   0.80413   0.60207
C          C       0.61073   0.37396   0.84337  -0.10317
C          C       0.62658   0.40405   0.88206   0.05547
C          C       0.65290   0.38342   0.92155  -0.11939
C          C       0.61371   0.45551   0.87967   0.08996
C          C       0.63355   0.49571   0.90306  -0.16253
C          C       0.61314   0.58438   0.89349   0.13720
C          C       0.63463   0.60081   0.93726  -0.16475
C          C       0.64194   0.65060   0.94410  -0.00885
C          C       0.66667   0.66728   0.99010   0.55691
C          C       0.62624   0.68400   0.90846  -0.09671
C          C       0.60290   0.66711   0.86555  -0.02700
C          C       0.58426   0.70105   0.82672   0.60296
C          C       0.59702   0.61722   0.85767  -0.14687
C          C       0.31184   0.31366   0.58464   0.60589
C          C       0.35502   0.34301   0.60201  -0.02292
C          C       0.39628   0.32243   0.62549  -0.09865
C          C       0.43534   0.35242   0.64106  -0.00562
C          C       0.47879   0.33075   0.66716   0.54997
C          C       0.43402   0.40252   0.63207  -0.16532
C          C       0.39214   0.42247   0.60931   0.13793
C          C       0.35257   0.39309   0.59481  -0.15098
C          C       0.40594   0.51139   0.62617  -0.16113
C          C       0.38465   0.55170   0.60414   0.08813
C          C       0.38957   0.60296   0.61657   0.05667
C          C       0.43120   0.61963   0.64247  -0.12122
C          C       0.43561   0.66851   0.65538  -0.02726
C          C       0.48120   0.68442   0.68137   0.55696
C          C       0.39865   0.70167   0.64226  -0.09771
C          C       0.35755   0.68545   0.61509  -0.04541
C          C       0.31979   0.72075   0.59739   0.60466
C          C       0.35293   0.63638   0.60243  -0.10162
C          C       0.31087   0.19017   0.46508   0.55373
C          C       0.33670   0.16806   0.42189  -0.02659
C          C       0.35247   0.19734   0.38270  -0.09629
C          C       0.37956   0.17656   0.34380  -0.04899
C          C       0.40072   0.20724   0.30394   0.60443
C          C       0.38946   0.12687   0.34352  -0.10198
C          C       0.37350   0.09714   0.38245   0.05594
C          C       0.34754   0.11826   0.42198  -0.11818
C          C       0.38612   0.04557   0.38005   0.08905
C          C       0.36636   0.00538   0.40351  -0.16309
C          C       0.38694   0.91667   0.39405   0.13588
C          C       0.36567   0.90041   0.43799  -0.16168
C          C       0.35860   0.85063   0.44513  -0.01063
C          C       0.33428   0.83409   0.49131   0.55579
C          C       0.37410   0.81710   0.40957  -0.09230
C          C       0.39722   0.83385   0.36652  -0.03076
C          C       0.41545   0.79955   0.32794   0.60432
C          C       0.40311   0.88367   0.35836  -0.14509
C          C       0.18670   0.31246   0.91630   0.60423
C          C       0.14405   0.34235   0.89875  -0.02358
C          C       0.10281   0.32196   0.87513  -0.10061
C          C       0.06422   0.35219   0.85907  -0.00760
C          C       0.02095   0.33070   0.83277   0.54973
C          C       0.06588   0.40228   0.86778  -0.16400
C          C       0.10775   0.42202   0.89070   0.13706
C          C       0.14701   0.39246   0.90566  -0.15011
C          C       0.09334   0.51064   0.87335  -0.16197
C          C       0.11427   0.55123   0.89513   0.08821
C          C       0.10911   0.60242   0.88262   0.05605
C          C       0.06790   0.61936   0.85624  -0.11903
C          C       0.06383   0.66839   0.84370  -0.02806
C          C       0.01857   0.68483   0.81743   0.55456
C          C       0.10077   0.70130   0.85754  -0.09732
C          C       0.14144   0.68473   0.88510  -0.04671
C          C       0.17930   0.71949   0.90356   0.60176
C          C       0.14565   0.63561   0.89748  -0.10047
C          C       0.18927   0.18973   0.03481   0.55317
C          C       0.16365   0.16748   0.07798  -0.02649
C          C       0.14823   0.19675   0.11729  -0.09817
C          C       0.12113   0.17604   0.15618  -0.04727
C          C       0.10019   0.20695   0.19598   0.60251
C          C       0.11094   0.12641   0.15638  -0.10238
C          C       0.12670   0.09663   0.11736   0.05529
C          C       0.15261   0.11772   0.07780  -0.11633
C          C       0.11391   0.04509   0.11973   0.08968
C          C       0.13372   0.00478   0.09647  -0.16767
C          C       0.11325   0.91609   0.10633   0.13483
C          C       0.13478   0.89960   0.06258  -0.16504
C          C       0.14205   0.84981   0.05576  -0.00974
C          C       0.16675   0.83294   0.00983   0.55625
C          C       0.12631   0.81644   0.09140  -0.09864
C          C       0.10291   0.83336   0.13427  -0.02782
C          C       0.08428   0.79933   0.17305   0.60343
C          C       0.09701   0.88325   0.14215  -0.14631
C          C       0.18691   0.81279   0.58461   0.60807
C          C       0.14414   0.84264   0.60193  -0.02228
C          C       0.10281   0.82221   0.62532  -0.10059
C          C       0.06409   0.85242   0.64115  -0.00678
C          C       0.02075   0.83080   0.66729   0.54866
C          C       0.06574   0.90252   0.63241  -0.16436
C          C       0.10779   0.92235   0.60981   0.13882
C          C       0.14713   0.89275   0.59506  -0.15209
C          C       0.09343   0.01120   0.62682  -0.16466
C          C       0.11437   0.05172   0.60487   0.08769
C          C       0.10902   0.10308   0.61695   0.05856
C          C       0.06737   0.12013   0.64270  -0.12440
C          C       0.06305   0.16919   0.65506  -0.02599
C          C       0.01767   0.18581   0.68113   0.55310
C          C       0.10022   0.20205   0.64165  -0.09646
C          C       0.14124   0.18547   0.61452  -0.04808
C          C       0.17917   0.22039   0.59634   0.60564
C          C       0.14566   0.13631   0.60233  -0.10329
C          C       0.18920   0.68979   0.46507   0.55292
C          C       0.16363   0.66756   0.42183  -0.02668
C          C       0.14858   0.69678   0.38236  -0.09775
C          C       0.12181   0.67603   0.34326  -0.04772
C          C       0.10124   0.70695   0.30327   0.60481
C          C       0.11145   0.62641   0.34311  -0.10109
C          C       0.12668   0.59670   0.38237   0.05462
C          C       0.15235   0.61784   0.42206  -0.11725
C          C       0.11378   0.54515   0.38010   0.08949
C          C       0.13363   0.50483   0.40328  -0.16318
C          C       0.11311   0.41608   0.39336   0.13411
C          C       0.13447   0.39950   0.43712  -0.16639
C          C       0.14150   0.34966   0.44400  -0.00775
C          C       0.16565   0.33287   0.49025   0.55562
C          C       0.12602   0.31635   0.40822  -0.09567
C          C       0.10276   0.33334   0.36535  -0.02767
C          C       0.08416   0.29927   0.32661   0.60591
C          C       0.09688   0.38325   0.35752  -0.14553
C          C       0.31315   0.81174   0.91655   0.60473
C          C       0.35578   0.84184   0.89909  -0.02330
C          C       0.39715   0.82168   0.87543  -0.09904
C          C       0.43553   0.85216   0.85930  -0.00592
C          C       0.47890   0.83075   0.83291   0.55097
C          C       0.43347   0.90228   0.86788  -0.16565
C          C       0.39140   0.92186   0.89071   0.13809
C          C       0.35245   0.89196   0.90580  -0.15222
C          C       0.40502   0.01078   0.87356  -0.16199
C          C       0.38364   0.05119   0.89532   0.08858
C          C       0.38901   0.10249   0.88306   0.05612
C          C       0.43080   0.11910   0.85727  -0.12116
C          C       0.43546   0.16799   0.84447  -0.02692
C          C       0.48115   0.18398   0.81863   0.55637
C          C       0.39857   0.20126   0.85762  -0.09323
C          C       0.35741   0.18516   0.88480  -0.04688
C          C       0.31975   0.22057   0.90258   0.60495
C          C       0.35257   0.13608   0.89735  -0.10127
C          C       0.30975   0.68881   0.03522   0.55136
C          C       0.33557   0.66727   0.07858  -0.02541
C          C       0.35060   0.69695   0.11779  -0.09677
C          C       0.37740   0.67659   0.15706  -0.04825
C          C       0.39788   0.70755   0.19717   0.60517
C          C       0.38790   0.62697   0.15755  -0.10214
C          C       0.37286   0.59698   0.11846   0.05549
C          C       0.34706   0.61767   0.07869  -0.11892
C          C       0.38596   0.54556   0.12060   0.08763
C          C       0.36623   0.50549   0.09688  -0.16182
C          C       0.38704   0.41679   0.10577   0.13712
C          C       0.36585   0.40030   0.06189  -0.16365
C          C       0.35896   0.35045   0.05491  -0.00855
C          C       0.33444   0.33390   0.00878   0.55363
C          C       0.37474   0.31704   0.09048  -0.09515
C          C       0.39758   0.33405   0.13361  -0.02549
C          C       0.41598   0.30039   0.17280   0.59984
C          C       0.40307   0.38395   0.14160  -0.14807
C          C       0.68667   0.68769   0.41518   0.60493
C          C       0.64371   0.65797   0.39783  -0.02098
C          C       0.60199   0.67828   0.37491  -0.10152
C          C       0.56310   0.64800   0.35950  -0.00521
C          C       0.51918   0.66933   0.33391   0.55057
C          C       0.56501   0.59788   0.36821  -0.16347
C          C       0.60738   0.57821   0.39029   0.13760
C          C       0.64684   0.60786   0.40452  -0.15256
C          C       0.59375   0.48937   0.37323  -0.16034
C          C       0.61503   0.44903   0.39510   0.08895
C          C       0.60995   0.39782   0.38262   0.05792
C          C       0.56846   0.38096   0.35658  -0.12449
C          C       0.56427   0.33202   0.34368  -0.02621
C          C       0.51874   0.31601   0.31751   0.55602
C          C       0.60137   0.29904   0.35698  -0.09691
C          C       0.64229   0.31550   0.38436  -0.04806
C          C       0.68030   0.28068   0.40253   0.60583
C          C       0.64660   0.36456   0.39698  -0.10326
C          C       0.68920   0.81067   0.53481   0.55201
C          C       0.66355   0.83282   0.57805  -0.02615
C          C       0.64809   0.80342   0.61725  -0.09360
C          C       0.62106   0.82409   0.65624  -0.04749
C          C       0.60014   0.79310   0.69598   0.60196
C          C       0.61096   0.87375   0.65658  -0.10243
C          C       0.62668   0.90364   0.61765   0.05495
C          C       0.65255   0.88259   0.57801  -0.11613
C          C       0.61395   0.95521   0.62019   0.08864
C          C       0.63370   0.99553   0.59691  -0.16373
C          C       0.61326   0.08428   0.60692   0.13792
C          C       0.63409   0.10084   0.56286  -0.16741
C          C       0.64155   0.15062   0.55608  -0.00827
C          C       0.66580   0.16729   0.50981   0.55446
C          C       0.62658   0.18399   0.59208  -0.09522
C          C       0.60367   0.16707   0.63521  -0.02750
C          C       0.58530   0.20103   0.67423   0.60371
C          C       0.59771   0.11715   0.64303  -0.14669
C          C       0.81314   0.68820   0.08345   0.60522
C          C       0.85577   0.65824   0.10098  -0.02380
C          C       0.89707   0.67843   0.12466  -0.10282
C          C       0.93552   0.64800   0.14071  -0.00583
C          C       0.97888   0.66932   0.16707   0.54936
C          C       0.93359   0.59791   0.13196  -0.16931
C          C       0.89160   0.57831   0.10910   0.13874
C          C       0.85256   0.60812   0.09409  -0.15175
C          C       0.90548   0.48946   0.12628  -0.16146
C          C       0.88448   0.44898   0.10432   0.08869
C          C       0.88981   0.39771   0.11661   0.05639
C          C       0.93131   0.38104   0.14277  -0.11988
C          C       0.93586   0.33211   0.15543  -0.02575
C          C       0.98136   0.31608   0.18141   0.55593
C          C       0.89911   0.29887   0.14197  -0.09410
C          C       0.85825   0.31512   0.11450  -0.04895
C          C       0.82064   0.27999   0.09641   0.60570
C          C       0.85354   0.36416   0.10193  -0.10100
C          C       0.80971   0.81225   0.96499   0.55285
C          C       0.83552   0.83390   0.92169  -0.02469
C          C       0.85080   0.80412   0.88268  -0.09815
C          C       0.87800   0.82429   0.84357  -0.04709
C          C       0.89874   0.79307   0.80381   0.60413
C          C       0.88856   0.87391   0.84302  -0.10230
C          C       0.87306   0.90407   0.88182   0.05493
C          C       0.84692   0.88351   0.92150  -0.12254
C          C       0.88605   0.95553   0.87946   0.08862
C          C       0.86632   0.99569   0.90306  -0.16276
C          C       0.88677   0.08442   0.89365   0.13654
C          C       0.86541   0.10086   0.93749  -0.16742
C          C       0.85823   0.15067   0.94438  -0.00837
C          C       0.83416   0.16724   0.99071   0.55644
C          C       0.87380   0.18410   0.90877  -0.09526
C          C       0.89705   0.16719   0.86583  -0.02732
C          C       0.91566   0.20113   0.82704   0.60004
C          C       0.90286   0.11731   0.85785  -0.14623
N          N       0.88671   0.02749   0.39941   0.14408
N          N       0.85530   0.01125   0.43608  -0.11016
N          N       0.85445   0.96403   0.43336  -0.19733
N          N       0.92331   0.47168   0.65154  -0.19581
N          N       0.92744   0.51869   0.64866  -0.10756
N          N       0.89255   0.53434   0.61514   0.14394
N          N       0.61268   0.02735   0.10064   0.14381
N          N       0.64420   0.01107   0.06408  -0.10911
N          N       0.64506   0.96387   0.06691  -0.19712
N          N       0.57659   0.47122   0.84844  -0.19700
N          N       0.57248   0.51823   0.85111  -0.10744
N          N       0.60736   0.53403   0.88454   0.14520
N          N       0.38737   0.47299   0.60046   0.14442
N          N       0.35587   0.48886   0.56370  -0.10888
N          N       0.35458   0.53607   0.56632  -0.19806
N          N       0.42305   0.02976   0.34857  -0.19719
N          N       0.42715   0.98276   0.35121  -0.10605
N          N       0.39245   0.96701   0.38487   0.14615
N          N       0.11253   0.47255   0.89909   0.14601
N          N       0.14397   0.48886   0.93564  -0.10939
N          N       0.14473   0.53606   0.93286  -0.19641
N          N       0.07686   0.02944   0.15113  -0.19701
N          N       0.07277   0.98242   0.14867  -0.10799
N          N       0.10757   0.96650   0.11519   0.14772
N          N       0.11268   0.97292   0.60135   0.14492
N          N       0.14432   0.98906   0.56484  -0.11065
N          N       0.14503   0.03628   0.56735  -0.19682
N          N       0.07662   0.52949   0.34884  -0.19806
N          N       0.07252   0.48247   0.35129  -0.10655
N          N       0.10743   0.46653   0.38461   0.14722
N          N       0.38598   0.97243   0.89898   0.14602
N          N       0.35400   0.98843   0.93532  -0.10989
N          N       0.35289   0.03565   0.93270  -0.19671
N          N       0.42313   0.52973   0.15170  -0.19688
N          N       0.42739   0.48275   0.14863  -0.10664
N          N       0.39255   0.46711   0.11505   0.14587
N          N       0.61260   0.52772   0.39879   0.14414
N          N       0.64434   0.51178   0.43532  -0.10921
N          N       0.64548   0.46457   0.43269  -0.19789
N          N       0.57701   0.97088   0.65173  -0.19540
N          N       0.57292   0.01791   0.64934  -0.10771
N          N       0.60762   0.03385   0.61576   0.14510
N          N       0.88648   0.52774   0.10070   0.14544
N          N       0.85493   0.51163   0.06411  -0.11026
N          N       0.85404   0.46441   0.06668  -0.19739
N          N       0.92312   0.97132   0.84818  -0.19582
N          N       0.92728   0.01832   0.85100  -0.10891
N          N       0.89249   0.03406   0.88460   0.14625
O          O       0.77221   0.16486   0.42256  -0.53628
O          O       0.81980   0.23308   0.42483  -0.52608
O          O       0.97518   0.21214   0.31509  -0.52440
O          O       0.01954   0.14537   0.32811  -0.52560
O          O       0.78521   0.79668   0.43018  -0.54266
O          O       0.82492   0.73543   0.39007  -0.52361
O          O       0.98488   0.77239   0.30031  -0.53395
O          O       0.01747   0.84542   0.31318  -0.52828
O          O       0.79256   0.26893   0.53738  -0.52764
O          O       0.80559   0.33644   0.49476  -0.52956
O          O       0.89263   0.24760   0.69251  -0.52106
O          O       0.92264   0.31452   0.73111  -0.54180
O          O       0.83021   0.63760   0.47226  -0.52499
O          O       0.81504   0.70979   0.50562  -0.54189
O          O       0.91258   0.74723   0.66501  -0.52487
O          O       0.93245   0.68132   0.71126  -0.53306
O          O       0.72851   0.16287   0.07761  -0.53005
O          O       0.68219   0.23173   0.07519  -0.53431
O          O       0.52479   0.21196   0.18500  -0.52295
O          O       0.47993   0.14602   0.16937  -0.52483
O          O       0.71478   0.79757   0.07004  -0.54208
O          O       0.67512   0.73583   0.10954  -0.52433
O          O       0.51500   0.77231   0.19986  -0.53185
O          O       0.48232   0.84536   0.18730  -0.52970
O          O       0.70735   0.26872   0.96246  -0.52857
O          O       0.69450   0.33611   0.00526  -0.53113
O          O       0.60706   0.24738   0.80743  -0.52604
O          O       0.57513   0.31422   0.76999  -0.54078
O          O       0.66965   0.63809   0.02723  -0.52584
O          O       0.68507   0.70981   0.99268  -0.54129
O          O       0.58548   0.74663   0.83495  -0.52764
O          O       0.56755   0.68099   0.78750  -0.53596
O          O       0.27155   0.33748   0.57759  -0.53252
O          O       0.31756   0.26838   0.57741  -0.53100
O          O       0.47522   0.28780   0.68487  -0.52424
O          O       0.51948   0.35463   0.67193  -0.52587
O          O       0.28512   0.70426   0.56979  -0.54433
O          O       0.32501   0.76530   0.60987  -0.52503
O          O       0.48483   0.72690   0.69991  -0.53509
O          O       0.51791   0.65458   0.68478  -0.52912
O          O       0.29279   0.23321   0.46252  -0.52688
O          O       0.30749   0.16635   0.50563  -0.52927
O          O       0.39480   0.25311   0.30741  -0.52477
O          O       0.42494   0.18578   0.26943  -0.53980
O          O       0.33009   0.86409   0.52762  -0.52553
O          O       0.31735   0.79099   0.49491  -0.53986
O          O       0.41104   0.75405   0.33521  -0.52775
O          O       0.43492   0.81907   0.28971  -0.53508
O          O       0.22754   0.33562   0.92243  -0.53875
O          O       0.17996   0.26751   0.92463  -0.52408
O          O       0.02464   0.28778   0.81499  -0.52331
O          O       0.98030   0.35463   0.82793  -0.52293
O          O       0.21276   0.70262   0.93237  -0.53882
O          O       0.17519   0.76403   0.89044  -0.52467
O          O       0.01498   0.72786   0.80011  -0.53382
O          O       0.98214   0.65483   0.81265  -0.52671
O          O       0.20730   0.23285   0.03748  -0.52928
O          O       0.19251   0.16603   0.99420  -0.52789
O          O       0.10702   0.25279   0.19269  -0.52681
O          O       0.07522   0.18584   0.23014  -0.53925
O          O       0.16969   0.86203   0.97263  -0.52662
O          O       0.18505   0.79038   0.00734  -0.53944
O          O       0.08552   0.75379   0.16482  -0.52805
O          O       0.06757   0.81921   0.21236  -0.53711
O          O       0.22795   0.83581   0.57983  -0.53831
O          O       0.18003   0.76808   0.57522  -0.52705
O          O       0.02436   0.78782   0.68490  -0.52334
O          O       0.98011   0.85472   0.67214  -0.52284
O          O       0.21274   0.20397   0.56737  -0.54339
O          O       0.17507   0.26480   0.60977  -0.52471
O          O       0.01503   0.22836   0.69992  -0.53366
O          O       0.98039   0.15668   0.68467  -0.52566
O          O       0.20723   0.73291   0.46244  -0.52992
O          O       0.19244   0.66613   0.50567  -0.52800
O          O       0.10693   0.75286   0.30733  -0.52665
O          O       0.07770   0.68572   0.26818  -0.54074
O          O       0.16719   0.36180   0.52766  -0.52633
O          O       0.18509   0.29076   0.49267  -0.53961
O          O       0.08540   0.25373   0.33496  -0.52832
O          O       0.06749   0.31912   0.28732  -0.53886
O          O       0.27231   0.83493   0.92252  -0.53635
O          O       0.31981   0.76673   0.92478  -0.52597
O          O       0.47523   0.78785   0.81510  -0.52448
O          O       0.51954   0.85469   0.82802  -0.52624
O          O       0.28511   0.20417   0.93025  -0.54331
O          O       0.32499   0.26512   0.89011  -0.52516
O          O       0.48475   0.22652   0.80016  -0.53478
O          O       0.51801   0.15432   0.81528  -0.52939
O          O       0.29264   0.73223   0.03734  -0.52672
O          O       0.30539   0.66433   0.99507  -0.52842
O          O       0.39336   0.75357   0.19278  -0.52671
O          O       0.42014   0.68593   0.23278  -0.54185
O          O       0.33005   0.36397   0.97255  -0.52547
O          O       0.31753   0.29079   0.00512  -0.53939
O          O       0.41479   0.25474   0.16512  -0.52840
O          O       0.43234   0.32100   0.21193  -0.53007
O          O       0.72764   0.66450   0.42010  -0.53450
O          O       0.68000   0.73248   0.42461  -0.52750
O          O       0.52241   0.71197   0.31533  -0.52531
O          O       0.47837   0.64542   0.33041  -0.52451
O          O       0.71486   0.29767   0.42996  -0.54313
O          O       0.67518   0.23594   0.39054  -0.52639
O          O       0.51561   0.27389   0.29783  -0.53585
O          O       0.48162   0.34540   0.31506  -0.52894
O          O       0.70723   0.76755   0.53743  -0.52764
O          O       0.69247   0.83439   0.49423  -0.52773
O          O       0.60701   0.74728   0.69261  -0.52567
O          O       0.57514   0.81415   0.73017  -0.53950
O          O       0.66759   0.13832   0.47245  -0.52518
O          O       0.68505   0.20950   0.50736  -0.53970
O          O       0.58770   0.24672   0.66696  -0.52977
O          O       0.56744   0.18085   0.71284  -0.53582
O          O       0.77236   0.66490   0.07736  -0.53610
O          O       0.81981   0.73319   0.07521  -0.52702
O          O       0.97527   0.71223   0.18495  -0.52500
O          O       0.01950   0.64536   0.17185  -0.52452
O          O       0.78713   0.29639   0.06746  -0.54547
O          O       0.82490   0.23559   0.10987  -0.52329
O          O       0.98479   0.27353   0.19989  -0.53395
O          O       0.01825   0.34571   0.18482  -0.52945
O          O       0.79252   0.76884   0.96263  -0.52755
O          O       0.80554   0.83636   0.00528  -0.52919
O          O       0.89293   0.74714   0.80746  -0.52466
O          O       0.92269   0.81432   0.76906  -0.54112
O          O       0.83272   0.13813   0.02784  -0.52514
O          O       0.81493   0.20948   0.99359  -0.54114
O          O       0.91436   0.24673   0.83507  -0.52571
O          O       0.93242   0.18103   0.78783  -0.52973

