data_crystal

_audit_creation_method 'AiiDA-DDEC plugin'

_cell_length_a        14.80454
_cell_length_b        22.88144
_cell_length_c        22.87473

_cell_angle_alpha     83.98038
_cell_angle_beta     71.15326
_cell_angle_gamma     71.14135

_symmetry_space_group_name_Hall 'P 1'
_symmetry_space_group_name_H-M  'P 1'

loop_
_symmetry_equiv_pos_as_xyz
 'x,y,z'

loop_
_atom_site_label
_atom_site_type_symbol
_atom_site_fract_x
_atom_site_fract_y
_atom_site_fract_z
_atom_site_charge
Gd         Gd      0.20639   0.74228   0.20677   2.08791
Gd         Gd      0.47501   0.74668   0.18685   2.00818
Gd         Gd      0.15490   0.25745   0.79348   2.09013
Gd         Gd      0.40865   0.25331   0.81433   2.01127
Gd         Gd      0.19927   0.70651   0.75809   2.08846
Gd         Gd      0.47316   0.68598   0.75327   2.00871
Gd         Gd      0.66238   0.29349   0.24273   2.09059
Gd         Gd      0.91200   0.31453   0.24708   2.01033
Gd         Gd      0.70627   0.20647   0.74239   2.08958
Gd         Gd      0.97529   0.18581   0.74740   2.00859
Gd         Gd      0.65497   0.79347   0.25788   2.09135
Gd         Gd      0.90877   0.81458   0.25347   2.01067
Gd         Gd      0.69865   0.75824   0.70733   2.08942
Gd         Gd      0.97255   0.75307   0.68684   2.00661
Gd         Gd      0.16225   0.24178   0.29350   2.09100
Gd         Gd      0.41137   0.24669   0.31437   2.00954
H          H       0.40481   0.66853   0.99742   0.12869
H          H       0.50542   0.67469   0.88851   0.11282
H          H       0.56825   0.87128   0.87203   0.12267
H          H       0.53168   0.95270   0.94564   0.09356
H          H       0.42772   0.94624   0.05579   0.09764
H          H       0.36966   0.85618   0.09113   0.12086
H          H       0.24682   0.70381   0.50934   0.12740
H          H       0.35261   0.70349   0.39948   0.11946
H          H       0.17065   0.88179   0.30904   0.11757
H          H       0.02085   0.97108   0.34935   0.09941
H          H       0.92169   0.97630   0.46074   0.10487
H          H       0.97367   0.89223   0.53218   0.12986
H          H       0.34677   0.54726   0.17463   0.12780
H          H       0.35238   0.43830   0.20413   0.11543
H          H       0.44416   0.40338   0.38984   0.12242
H          H       0.47551   0.46727   0.45714   0.10382
H          H       0.46689   0.57697   0.42937   0.10586
H          H       0.43047   0.62171   0.33340   0.11816
H          H       0.06944   0.33140   0.00295   0.12919
H          H       0.06706   0.32554   0.11193   0.11300
H          H       0.31064   0.12937   0.12890   0.12307
H          H       0.42929   0.04791   0.05556   0.09462
H          H       0.42953   0.05414   0.94527   0.09764
H          H       0.31688   0.14401   0.90965   0.12043
H          H       0.45827   0.29699   0.49185   0.12812
H          H       0.45508   0.29676   0.60164   0.11987
H          H       0.36184   0.11826   0.69171   0.11814
H          H       0.34151   0.02898   0.65131   0.09995
H          H       0.35830   0.02401   0.53989   0.10574
H          H       0.39635   0.10857   0.46873   0.13022
H          H       0.06879   0.45170   0.82612   0.12904
H          H       0.99498   0.56114   0.79756   0.11527
H          H       0.23645   0.59669   0.61181   0.12253
H          H       0.39873   0.53316   0.54419   0.10322
H          H       0.47280   0.42350   0.57167   0.10618
H          H       0.38562   0.37821   0.66745   0.11691
H          H       0.32300   0.49749   0.83121   0.12846
H          H       0.42876   0.38835   0.82567   0.11293
H          H       0.68982   0.37096   0.62977   0.12290
H          H       0.73551   0.44399   0.54795   0.09395
H          H       0.62608   0.55437   0.55383   0.09771
H          H       0.47788   0.59030   0.64360   0.12166
H          H       0.20088   0.00875   0.79619   0.12789
H          H       0.30728   0.89914   0.79623   0.12031
H          H       0.30327   0.80888   0.61783   0.11728
H          H       0.24231   0.84936   0.52863   0.09971
H          H       0.14810   0.96076   0.52357   0.10537
H          H       0.11535   0.03186   0.60810   0.12965
H          H       0.14670   0.67403   0.95238   0.12870
H          H       0.04304   0.70329   0.06132   0.11487
H          H       0.09813   0.88939   0.09632   0.12296
H          H       0.19245   0.95714   0.03259   0.10376
H          H       0.29415   0.92959   0.92296   0.10680
H          H       0.30394   0.83323   0.87818   0.11774
H          H       0.65020   0.50307   0.16883   0.12869
H          H       0.64225   0.61200   0.17471   0.11188
H          H       0.69010   0.62854   0.37091   0.12359
H          H       0.72664   0.55511   0.45262   0.09393
H          H       0.73243   0.44496   0.44644   0.09794
H          H       0.70980   0.40949   0.35642   0.12120
H          H       0.00458   0.99175   0.20422   0.12838
H          H       0.00112   0.10158   0.20384   0.11961
H          H       0.72870   0.19198   0.38204   0.11737
H          H       0.61900   0.15170   0.47127   0.09889
H          H       0.63193   0.04013   0.47701   0.10589
H          H       0.75556   0.96867   0.39296   0.13054
H          H       0.77051   0.32634   0.04777   0.12832
H          H       0.80596   0.29711   0.93861   0.11543
H          H       0.08310   0.11167   0.90401   0.12244
H          H       0.18124   0.04414   0.96797   0.10408
H          H       0.14482   0.07161   0.07775   0.10625
H          H       0.01270   0.16766   0.12255   0.11716
H          H       0.90508   0.99701   0.66834   0.12821
H          H       0.00580   0.88812   0.67451   0.11264
H          H       0.06934   0.87171   0.87092   0.12356
H          H       0.03208   0.94517   0.95263   0.09437
H          H       0.92776   0.05527   0.94627   0.09849
H          H       0.86984   0.09064   0.85617   0.12033
H          H       0.74700   0.50870   0.70378   0.12735
H          H       0.85349   0.39917   0.70359   0.12004
H          H       0.67128   0.30839   0.88151   0.11757
H          H       0.52152   0.34851   0.97083   0.10003
H          H       0.42264   0.45999   0.97643   0.10519
H          H       0.47440   0.53148   0.89228   0.12980
H          H       0.84803   0.17359   0.54731   0.12887
H          H       0.85395   0.20324   0.43825   0.11592
H          H       0.94463   0.38922   0.40420   0.12234
H          H       0.97502   0.45658   0.46846   0.10299
H          H       0.96597   0.42874   0.57820   0.10617
H          H       0.93025   0.33243   0.62264   0.11742
H          H       0.57005   0.00277   0.33206   0.12891
H          H       0.56731   0.11185   0.32608   0.11370
H          H       0.81006   0.12908   0.12969   0.12285
H          H       0.92854   0.05584   0.04804   0.09459
H          H       0.92924   0.94550   0.05435   0.09745
H          H       0.81711   0.90973   0.14434   0.11976
H          H       0.95862   0.49188   0.29694   0.12786
H          H       0.95505   0.60169   0.29690   0.11983
H          H       0.86169   0.69170   0.11823   0.11795
H          H       0.84159   0.65122   0.02891   0.09996
H          H       0.85841   0.53982   0.02401   0.10590
H          H       0.89655   0.46869   0.10862   0.13061
H          H       0.56803   0.82615   0.45257   0.12894
H          H       0.49479   0.79741   0.56194   0.11473
H          H       0.73677   0.61171   0.59703   0.12293
H          H       0.89866   0.54405   0.53316   0.10357
H          H       0.97213   0.57163   0.42345   0.10662
H          H       0.88483   0.66763   0.37847   0.11676
H          H       0.82200   0.83084   0.49809   0.12807
H          H       0.92801   0.82554   0.38905   0.11369
H          H       0.18934   0.62959   0.37169   0.12257
H          H       0.23505   0.54788   0.44486   0.09398
H          H       0.12558   0.55384   0.55523   0.09757
H          H       0.97726   0.64348   0.59100   0.12163
H          H       0.70069   0.79607   0.00983   0.12753
H          H       0.80605   0.79661   0.90009   0.11925
H          H       0.80289   0.61814   0.80976   0.11743
H          H       0.74191   0.52890   0.85004   0.09944
H          H       0.64714   0.52388   0.96137   0.10530
H          H       0.61471   0.60810   0.03267   0.13037
H          H       0.64578   0.95185   0.67483   0.12851
H          H       0.54212   0.06083   0.70399   0.11464
H          H       0.59773   0.09622   0.88992   0.12226
H          H       0.69260   0.03255   0.95751   0.10345
H          H       0.79500   0.92311   0.92970   0.10637
H          H       0.80432   0.87827   0.83352   0.11856
H          H       0.15000   0.16872   0.50285   0.12807
H          H       0.14195   0.17441   0.61185   0.11298
H          H       0.19004   0.37050   0.62872   0.12303
H          H       0.22649   0.45224   0.55539   0.09381
H          H       0.23226   0.44622   0.44520   0.09821
H          H       0.20949   0.35630   0.40961   0.12151
H          H       0.50536   0.20398   0.99125   0.12803
H          H       0.50244   0.20315   0.10099   0.11997
H          H       0.23019   0.38089   0.19240   0.11784
H          H       0.12007   0.47036   0.15266   0.09958
H          H       0.13173   0.47638   0.04127   0.10483
H          H       0.25485   0.39258   0.96934   0.12938
H          H       0.27036   0.04767   0.32586   0.12817
H          H       0.30539   0.93851   0.29698   0.11493
H          H       0.58294   0.90299   0.11163   0.12302
H          H       0.68177   0.96656   0.04408   0.10441
H          H       0.64600   0.07628   0.07137   0.10659
H          H       0.51379   0.12144   0.16721   0.11657
C          C       0.40443   0.75600   0.02248  -0.05607
C          C       0.42959   0.70881   0.98118  -0.08862
C          C       0.48536   0.71287   0.91945  -0.05634
C          C       0.51461   0.76496   0.89685  -0.08348
C          C       0.49339   0.81421   0.93844   0.06480
C          C       0.52529   0.86746   0.91978  -0.14942
C          C       0.50353   0.91347   0.96130  -0.07676
C          C       0.44614   0.90950   0.02334  -0.08316
C          C       0.41340   0.85877   0.04331  -0.13516
C          C       0.43721   0.80935   0.00264   0.05044
C          C       0.34118   0.74733   0.08620   0.61410
C          C       0.56413   0.76666   0.82936   0.61255
C          C       0.13481   0.78800   0.50205  -0.07478
C          C       0.22384   0.74093   0.47841  -0.08348
C          C       0.28240   0.74025   0.41645  -0.09921
C          C       0.25005   0.78520   0.37570  -0.06612
C          C       0.16001   0.83532   0.39758   0.04524
C          C       0.12795   0.88413   0.35781  -0.14132
C          C       0.04403   0.93397   0.38029  -0.07679
C          C       0.98808   0.93690   0.44356  -0.07759
C          C       0.01655   0.89024   0.48358  -0.14100
C          C       0.10258   0.83798   0.46239   0.05572
C          C       0.07847   0.78103   0.56859   0.56724
C          C       0.31513   0.77806   0.30987   0.64536
C          C       0.39007   0.56327   0.25045  -0.07636
C          C       0.36667   0.52726   0.21571  -0.07725
C          C       0.36972   0.46611   0.23229  -0.10118
C          C       0.39739   0.44063   0.28386  -0.05234
C          C       0.41854   0.47606   0.32245   0.04761
C          C       0.44105   0.45112   0.37750  -0.14579
C          C       0.45771   0.48703   0.41535  -0.08348
C          C       0.45254   0.54913   0.39964  -0.08006
C          C       0.43194   0.57447   0.34612  -0.13346
C          C       0.41452   0.53911   0.30576   0.06409
C          C       0.38642   0.62681   0.22674   0.64363
C          C       0.40482   0.37462   0.29642   0.63707
C          C       0.18234   0.24412   0.97799  -0.05772
C          C       0.11849   0.29127   0.01922  -0.08840
C          C       0.11638   0.28738   0.08101  -0.05634
C          C       0.17538   0.23547   0.10366  -0.08388
C          C       0.24527   0.18624   0.06225   0.06450
C          C       0.31176   0.13312   0.08112  -0.14835
C          C       0.37771   0.08707   0.03973  -0.07822
C          C       0.37867   0.09090   0.97763  -0.08262
C          C       0.31523   0.14152   0.95749  -0.13668
C          C       0.24868   0.19094   0.99803   0.05241
C          C       0.17476   0.25256   0.91410   0.61323
C          C       0.15912   0.23370   0.17112   0.61130
C          C       0.42435   0.21240   0.49888  -0.07470
C          C       0.44222   0.25961   0.52265  -0.08452
C          C       0.43844   0.26009   0.58460  -0.10006
C          C       0.41066   0.21495   0.62521  -0.06662
C          C       0.39278   0.16481   0.60324   0.04541
C          C       0.37004   0.11591   0.64295  -0.14140
C          C       0.35850   0.06608   0.62037  -0.07659
C          C       0.36830   0.06333   0.55713  -0.08003
C          C       0.38964   0.11017   0.51722  -0.14090
C          C       0.40261   0.16230   0.53844   0.05641
C          C       0.42838   0.21917   0.43220   0.56546
C          C       0.40234   0.22206   0.69111   0.64411
C          C       0.20385   0.43637   0.75060  -0.07751
C          C       0.10970   0.47216   0.78542  -0.07906
C          C       0.06826   0.53351   0.76928  -0.10106
C          C       0.12199   0.55918   0.71790  -0.05131
C          C       0.21694   0.52385   0.67910   0.04645
C          C       0.26908   0.54898   0.62404  -0.14415
C          C       0.35932   0.51321   0.58598  -0.08410
C          C       0.40087   0.45110   0.60152  -0.08096
C          C       0.35241   0.42552   0.65498  -0.13264
C          C       0.25942   0.46074   0.69550   0.06649
C          C       0.23979   0.37287   0.77436   0.64671
C          C       0.07643   0.62515   0.70491   0.63672
C          C       0.41129   0.52217   0.74392  -0.05878
C          C       0.38825   0.48102   0.79114  -0.08622
C          C       0.44746   0.41919   0.78745  -0.05593
C          C       0.52934   0.39647   0.73573  -0.08395
C          C       0.55802   0.43773   0.68632   0.06398
C          C       0.64329   0.41872   0.63324  -0.14822
C          C       0.66811   0.45997   0.58705  -0.07834
C          C       0.60734   0.52210   0.59068  -0.08288
C          C       0.52381   0.54242   0.64125  -0.13783
C          C       0.49755   0.50199   0.69079   0.05224
C          C       0.33997   0.58603   0.75225   0.61146
C          C       0.58100   0.32914   0.73451   0.61380
C          C       0.17290   0.00153   0.71204  -0.07487
C          C       0.21525   0.97787   0.75899  -0.08471
C          C       0.27361   0.91600   0.75951  -0.09992
C          C       0.28624   0.87528   0.71452  -0.06660
C          C       0.24607   0.89725   0.66445   0.04423
C          C       0.26279   0.85763   0.61555  -0.13835
C          C       0.22847   0.88024   0.56576  -0.07875
C          C       0.17519   0.94347   0.56296  -0.07758
C          C       0.15679   0.98332   0.60978  -0.14142
C          C       0.19087   0.96199   0.66194   0.05724
C          C       0.10929   0.06796   0.71921   0.56626
C          C       0.34360   0.80931   0.72179   0.64544
C          C       0.20581   0.74982   0.93663  -0.07640
C          C       0.14641   0.71505   0.97256  -0.07972
C          C       0.08802   0.73161   0.03371  -0.09969
C          C       0.08973   0.78325   0.05929  -0.05153
C          C       0.14617   0.82191   0.02377   0.04789
C          C       0.14301   0.87715   0.04864  -0.14658
C          C       0.19510   0.91524   0.01275  -0.08363
C          C       0.25237   0.89960   0.95069  -0.08124
C          C       0.25791   0.84585   0.92540  -0.13404
C          C       0.20560   0.80525   0.96078   0.06615
C          C       0.26608   0.72591   0.87320   0.64515
C          C       0.03101   0.79637   0.12530   0.63712
C          C       0.67632   0.47793   0.25603  -0.05776
C          C       0.65930   0.51927   0.20895  -0.08715
C          C       0.65343   0.58101   0.21286  -0.05796
C          C       0.66092   0.60356   0.26471  -0.08126
C          C       0.68137   0.56207   0.31402   0.06344
C          C       0.69471   0.58081   0.36723  -0.14876
C          C       0.71425   0.53937   0.41338  -0.07731
C          C       0.71874   0.47734   0.40956  -0.08159
C          C       0.70606   0.45728   0.35883  -0.13948
C          C       0.68935   0.49788   0.30930   0.05273
C          C       0.67749   0.41403   0.24748   0.61535
C          C       0.64384   0.67095   0.26612   0.60951
C          C       0.88638  -0.00101   0.28889  -0.07567
C          C       0.95132   0.02266   0.24150  -0.08521
C          C       0.94803   0.08459   0.24073  -0.09864
C          C       0.87512   0.12523   0.28577  -0.06780
C          C       0.80712   0.10335   0.33602   0.04318
C          C       0.73502   0.14317   0.38461  -0.13958
C          C       0.67356   0.12064   0.43444  -0.07580
C          C       0.68116   0.05732   0.43761  -0.07830
C          C       0.74977   0.01728   0.39108  -0.14252
C          C       0.81470   0.03853   0.33890   0.05800
C          C       0.89695   0.93245   0.28201   0.56591
C          C       0.87372   0.19113   0.27836   0.64660
C          C       0.88996   0.25092   0.06361  -0.07782
C          C       0.83182   0.28555   0.02756  -0.07812
C          C       0.85160   0.26901   0.96637  -0.10089
C          C       0.93097   0.21754   0.94106  -0.05263
C          C       0.99049   0.17901   0.97663   0.04929
C          C       0.06774   0.12393   0.95175  -0.14763
C          C       0.12194   0.08596   0.98774  -0.08302
C          C       0.10094   0.10155   0.04990  -0.08163
C          C       0.02707   0.15513   0.07520  -0.13150
C          C       0.96972   0.19566   0.03967   0.06440
C          C       0.86189   0.27478   0.12713   0.64565
C          C       0.95109   0.20418   0.87526   0.63654
C          C       0.90476   0.02211   0.75586  -0.05722
C          C       0.92989   0.98081   0.70864  -0.08823
C          C       0.98574   0.91910   0.71268  -0.05584
C          C       0.01543   0.89653   0.76464  -0.08271
C          C       0.99411   0.93806   0.81395   0.06438
C          C       0.02604   0.91939   0.86722  -0.15018
C          C       0.00399   0.96085   0.91336  -0.07645
C          C       0.94640   0.02285   0.90946  -0.08544
C          C       0.91373   0.04284   0.85869  -0.13465
C          C       0.93766   0.00222   0.80919   0.05046
C          C       0.84135   0.08584   0.74735   0.61383
C          C       0.06572   0.82911   0.76604   0.61211
C          C       0.63522   0.50143   0.78803  -0.07329
C          C       0.72433   0.47782   0.74102  -0.08454
C          C       0.78327   0.41594   0.74039  -0.10025
C          C       0.75102   0.37513   0.78531  -0.06571
C          C       0.66085   0.39699   0.83535   0.04552
C          C       0.62864   0.35715   0.88400  -0.14103
C          C       0.54473   0.37956   0.93386  -0.07800
C          C       0.48888   0.44284   0.93695  -0.07634
C          C       0.51732   0.48290   0.89033  -0.14145
C          C       0.60327   0.46175   0.83805   0.05502
C          C       0.57885   0.56795   0.78098   0.56629
C          C       0.81560   0.30917   0.77822   0.64657
C          C       0.89098   0.24937   0.56355  -0.07604
C          C       0.86793   0.21466   0.52733  -0.08034
C          C       0.87111   0.23139   0.46616  -0.10044
C          C       0.89845   0.28310   0.44095  -0.05260
C          C       0.91925   0.32163   0.47665   0.04806
C          C       0.94138   0.37681   0.45194  -0.14622
C          C       0.95751   0.41470   0.48809  -0.08229
C          C       0.95214   0.39889   0.55022  -0.08142
C          C       0.93196   0.34520   0.57535  -0.13230
C          C       0.91513   0.30480   0.53971   0.06558
C          C       0.88665   0.22539   0.62708   0.64464
C          C       0.90529   0.29635   0.37506   0.63501
C          C       0.68261   0.97794   0.24453  -0.05746
C          C       0.61886   0.01907   0.29183  -0.08831
C          C       0.61656   0.08088   0.28794  -0.05675
C          C       0.67533   0.10362   0.23601  -0.08340
C          C       0.74514   0.06233   0.18665   0.06428
C          C       0.81130   0.08129   0.13341  -0.14886
C          C       0.87717   0.03996   0.08729  -0.07890
C          C       0.87841   0.97782   0.09115  -0.08203
C          C       0.81527   0.95760   0.14185  -0.13493
C          C       0.74875   0.99808   0.19133   0.05170
C          C       0.67490   0.91410   0.25272   0.61259
C          C       0.65918   0.17102   0.23455   0.61230
C          C       0.92483   0.49891   0.21233  -0.07710
C          C       0.94251   0.52272   0.25959  -0.08292
C          C       0.93855   0.58468   0.26014  -0.10078
C          C       0.91085   0.62526   0.21495  -0.06686
C          C       0.89294   0.60326   0.16480   0.04550
C          C       0.87012   0.64292   0.11588  -0.14076
C          C       0.85862   0.62031   0.06604  -0.07721
C          C       0.86846   0.55707   0.06332  -0.08022
C          C       0.88982   0.51719   0.11018  -0.14095
C          C       0.90288   0.53845   0.16226   0.05718
C          C       0.92897   0.43225   0.21919   0.56691
C          C       0.90241   0.69117   0.22208   0.64511
C          C       0.70359   0.75091   0.43701  -0.07663
C          C       0.60936   0.78554   0.47292  -0.07949
C          C       0.56808   0.76922   0.53424  -0.09975
C          C       0.62197   0.71781   0.55980  -0.05289
C          C       0.71690   0.67916   0.52434   0.04777
C          C       0.76914   0.62401   0.54930  -0.14472
C          C       0.85918   0.58592   0.51336  -0.08332
C          C       0.90041   0.60155   0.45121  -0.08231
C          C       0.85191   0.65513   0.42582  -0.13143
C          C       0.75918   0.69572   0.46125   0.06377
C          C       0.73935   0.77463   0.37340   0.64705
C          C       0.57668   0.70456   0.62570   0.63655
C          C       0.91044   0.74371   0.52283  -0.05813
C          C       0.88744   0.79085   0.48162  -0.08661
C          C       0.94682   0.78724   0.41979  -0.05706
C          C       0.02888   0.73558   0.39701  -0.08384
C          C       0.05745   0.68620   0.43838   0.06476
C          C       0.14278   0.63313   0.41946  -0.14928
C          C       0.16760   0.58696   0.46076  -0.07773
C          C       0.10680   0.59060   0.52288  -0.08339
C          C       0.02318   0.64113   0.54312  -0.13471
C          C       0.99686   0.69064   0.50265   0.05078
C          C       0.83938   0.75214   0.58682   0.61368
C          C       0.08080   0.73444   0.32959   0.61453
C          C       0.67256   0.71203   0.00246  -0.07501
C          C       0.71486   0.75899   0.97889  -0.08426
C          C       0.77276   0.75974   0.91696  -0.09839
C          C       0.78527   0.71480   0.87624  -0.06778
C          C       0.74546   0.66461   0.89818   0.04578
C          C       0.76232   0.61577   0.85849  -0.13999
C          C       0.72796   0.56600   0.88097  -0.07674
C          C       0.67447   0.56318   0.94418  -0.07941
C          C       0.65620   0.60986   0.98415  -0.14024
C          C       0.69040   0.66199   0.96293   0.05612
C          C       0.60867   0.71925   0.06878   0.56817
C          C       0.84305   0.72204   0.81036   0.64407
C          C       0.70547   0.93641   0.75045  -0.07685
C          C       0.64577   0.97212   0.71572  -0.07706
C          C       0.58740   0.03327   0.73219  -0.10053
C          C       0.58938   0.05899   0.78367  -0.05190
C          C       0.64595   0.02369   0.82236   0.04823
C          C       0.64290   0.04860   0.87756  -0.14699
C          C       0.69524   0.01277   0.91558  -0.08209
C          C       0.75281   0.95078   0.89987  -0.08170
C          C       0.75815   0.92543   0.84621  -0.13406
C          C       0.70547   0.96072   0.80573   0.06519
C          C       0.76601   0.87299   0.72678   0.64160
C          C       0.53073   0.12505   0.79620   0.63830
C          C       0.17575   0.25595   0.47792  -0.05829
C          C       0.15901   0.20879   0.51917  -0.08619
C          C       0.15321   0.21258   0.58093  -0.05830
C          C       0.16074   0.26434   0.60358  -0.08112
C          C       0.18117   0.31371   0.56216   0.06257
C          C       0.19458   0.36685   0.58097  -0.14840
C          C       0.21408   0.41305   0.53959  -0.07649
C          C       0.21850   0.40934   0.47754  -0.08267
C          C       0.20572   0.35868   0.45742  -0.14017
C          C       0.18894   0.30913   0.49795   0.05348
C          C       0.17668   0.24736   0.41405   0.61385
C          C       0.14375   0.26559   0.67100   0.61003
C          C       0.38655   0.28841  -0.00109  -0.07634
C          C       0.45194   0.24106   0.02234  -0.08439
C          C       0.44897   0.24002   0.08426  -0.09954
C          C       0.37594   0.28478   0.12515  -0.06635
C          C       0.30775   0.33511   0.10353   0.04415
C          C       0.23599   0.38359   0.14364  -0.14047
C          C       0.17428   0.43356   0.12144  -0.07691
C          C       0.18124   0.43691   0.05819  -0.07851
C          C       0.24956   0.39049   0.01789  -0.13976
C          C       0.31486   0.33822   0.03875   0.05742
C          C       0.39691   0.28177   0.93229   0.56780
C          C       0.37476   0.27722   0.19103   0.64544
C          C       0.39021   0.06315   0.25049  -0.07793
C          C       0.33166   0.02733   0.28510  -0.07808
C          C       0.35115   0.96612   0.26873  -0.09963
C          C       0.43050   0.94051   0.21734  -0.05373
C          C       0.49046   0.97583   0.17880   0.04996
C          C       0.56784   0.95071   0.12383  -0.14775
C          C       0.62246   0.98647   0.08585  -0.08382
C          C       0.60184   0.04861   0.10132  -0.08260
C          C       0.52788   0.07412   0.15479  -0.13162
C          C       0.47006   0.03888   0.19533   0.06555
C          C       0.36265   0.12660   0.27448   0.64532
C          C       0.45076   0.87455   0.20449   0.63766
O          O       0.35019   0.76883   0.13433  -0.76624
O          O       0.27663   0.71988   0.09458  -0.57588
O          O       0.57770   0.72031   0.79487  -0.76380
O          O       0.59602   0.81100   0.80252  -0.59944
O          O       0.99591   0.82109   0.59744  -0.61542
O          O       0.11406   0.73163   0.59693  -0.63727
O          O       0.27743   0.77956   0.26555  -0.74399
O          O       0.40828   0.76842   0.29853  -0.61453
O          O       0.32644   0.65080   0.19445  -0.70002
O          O       0.44139   0.65483   0.23669  -0.63473
O          O       0.32794   0.35766   0.30862  -0.55809
O          O       0.49152   0.33390   0.29251  -0.76526
O          O       0.25380   0.23133   0.86615  -0.76674
O          O       0.09118   0.27963   0.90546  -0.57715
O          O       0.09163   0.27993   0.20559  -0.76448
O          O       0.20867   0.18946   0.19793  -0.59689
O          O       0.41373   0.17934   0.40356  -0.61594
O          O       0.44477   0.26801   0.40345  -0.63665
O          O       0.32168   0.22046   0.73504  -0.74358
O          O       0.47410   0.23181   0.70285  -0.61341
O          O       0.17132   0.34874   0.80578  -0.70023
O          O       0.33248   0.34520   0.76557  -0.63614
O          O       0.99522   0.64197   0.69228  -0.55635
O          O       0.11859   0.66603   0.70839  -0.76575
O          O       0.37064   0.63401   0.73036  -0.76385
O          O       0.24799   0.59460   0.78000  -0.57678
O          O       0.54702   0.29453   0.78027  -0.76459
O          O       0.65889   0.30255   0.69113  -0.59894
O          O       0.06591   0.09678   0.67948  -0.61540
O          O       0.09616   0.09632   0.76846  -0.63794
O          O       0.30637   0.76548   0.72053  -0.74279
O          O       0.42723   0.79745   0.73140  -0.61545
O          O       0.22978   0.69404   0.84895  -0.70168
O          O       0.34971   0.73508   0.84554  -0.63411
O          O       0.93725   0.80835   0.14228  -0.55665
O          O       0.07680   0.79367   0.16600  -0.76690
O          O       0.73541   0.36608   0.26868  -0.76866
O          O       0.62105   0.40539   0.22036  -0.57675
O          O       0.62231   0.70546   0.21994  -0.76337
O          O       0.65025   0.69769   0.31000  -0.59701
O          O       0.84534   0.90287   0.32270  -0.61565
O          O       0.95939   0.90490   0.23187  -0.63728
O          O       0.79135   0.23488   0.27980  -0.74280
O          O       0.95517   0.20297   0.26849  -0.61695
O          O       0.76901   0.30578   0.15106  -0.69738
O          O       0.92678   0.26622   0.15494  -0.63665
O          O       0.88630   0.19154   0.85885  -0.55526
O          O       0.03416   0.20737   0.83416  -0.76745
O          O       0.85021   0.13398   0.76900  -0.76802
O          O       0.77680   0.09433   0.71988  -0.57467
O          O       0.07764   0.79449   0.72024  -0.76252
O          O       0.09993   0.80249   0.80961  -0.59903
O          O       0.49585   0.59675   0.82075  -0.61672
O          O       0.61499   0.59643   0.73183  -0.63681
O          O       0.77736   0.26519   0.77965  -0.74340
O          O       0.90883   0.29739   0.76869  -0.61677
O          O       0.82528   0.19399   0.65070  -0.69651
O          O       0.94208   0.23430   0.65536  -0.63708
O          O       0.82814   0.30865   0.35840  -0.55578
O          O       0.99165   0.29317   0.33412  -0.76623
O          O       0.75383   0.86609   0.23135  -0.76706
O          O       0.59128   0.90553   0.27974  -0.57659
O          O       0.59099   0.20556   0.28040  -0.76316
O          O       0.70975   0.19778   0.19088  -0.59851
O          O       0.91408   0.40356   0.17949  -0.61682
O          O       0.94570   0.40357   0.26799  -0.63638
O          O       0.82161   0.73499   0.22056  -0.74310
O          O       0.97417   0.70299   0.23181  -0.61549
O          O       0.67069   0.80593   0.34932  -0.70036
O          O       0.83202   0.76577   0.34551  -0.63690
O          O       0.49552   0.69187   0.64248  -0.55750
O          O       0.61899   0.70799   0.66651  -0.76358
O          O       0.87058   0.73004   0.63455  -0.76302
O          O       0.74731   0.78010   0.59579  -0.57916
O          O       0.04688   0.78021   0.29493  -0.76431
O          O       0.15882   0.69114   0.30293  -0.59997
O          O       0.56538   0.67944   0.09742  -0.61750
O          O       0.59525   0.76853   0.09712  -0.63753
O          O       0.80634   0.72104   0.76613  -0.74585
O          O       0.92677   0.73133   0.79900  -0.61155
O          O       0.73062   0.84870   0.69436  -0.70134
O          O       0.84910   0.84531   0.73670  -0.63250
O          O       0.43694   0.14198   0.80855  -0.55615
O          O       0.57671   0.16587   0.79222  -0.76819
O          O       0.23412   0.26876   0.36605  -0.76536
O          O       0.12057   0.21993   0.40547  -0.57827
O          O       0.12220   0.21946   0.70551  -0.76197
O          O       0.15033   0.30938   0.69775  -0.59811
O          O       0.34504   0.32253   0.90293  -0.61487
O          O       0.45954   0.23178   0.90444  -0.64038
O          O       0.29296   0.27751   0.23485  -0.74579
O          O       0.45591   0.26835   0.20287  -0.61300
O          O       0.26993   0.15061   0.30580  -0.70027
O          O       0.42758   0.15436   0.26581  -0.63424
O          O       0.38639   0.85760   0.19196  -0.55572
O          O       0.53372   0.83380   0.20825  -0.76670

