data_crystal

_audit_creation_method 'AiiDA-DDEC plugin'

_cell_length_a        16.17758
_cell_length_b        16.78321
_cell_length_c        29.81590

_cell_angle_alpha     105.19193
_cell_angle_beta     99.43602
_cell_angle_gamma     110.40446

_symmetry_space_group_name_Hall 'P 1'
_symmetry_space_group_name_H-M  'P 1'

loop_
_symmetry_equiv_pos_as_xyz
 'x,y,z'

loop_
_atom_site_label
_atom_site_type_symbol
_atom_site_fract_x
_atom_site_fract_y
_atom_site_fract_z
_atom_site_charge
Zn         Zn      0.71630   0.76189   0.22571   0.94257
Zn         Zn      0.71711   0.60690   0.88712   0.97642
Zn         Zn      0.25057   0.17468   0.39985   0.94693
Zn         Zn      0.92346   0.73759   0.28437   0.97197
Zn         Zn      0.74943   0.82532   0.60015   0.94698
Zn         Zn      0.82906   0.01633   0.69207   0.94121
Zn         Zn      0.35104   0.56843   0.19601   0.93353
Zn         Zn      0.28289   0.39311   0.11289   0.97647
Zn         Zn      0.17094   0.98367   0.30793   0.94121
Zn         Zn      0.28370   0.23812   0.77429   0.94258
Zn         Zn      0.64896   0.43157   0.80399   0.93358
Zn         Zn      0.07655   0.26241   0.71563   0.97198
H          H       0.23399   0.96288   0.02601   0.11543
H          H       0.31815   0.47189   0.46073   0.12754
H          H       0.20732   0.08253   0.87013   0.12985
H          H       0.79592   0.41605   0.22405   0.11402
H          H       0.49269   0.30388   0.36239   0.12940
H          H       0.20408   0.58395   0.77595   0.11399
H          H       0.41281   0.02888   0.27201   0.12918
H          H       0.58991   0.47840   0.13723   0.12664
H          H       0.56933   0.94318   0.18333   0.11687
H          H       0.17139   0.61360   0.13697   0.11547
H          H       0.55643   0.16971   0.94028   0.10181
H          H       0.20648   0.60101   0.95619   0.11020
H          H       0.09724   0.81593   0.38279   0.12516
H          H       0.76722   0.88806   0.93199   0.12302
H          H      -0.00076   0.66122   0.69301   0.10649
H          H       0.65483   0.10895   0.96552   0.11297
H          H       0.43067   0.05682   0.81668   0.11687
H          H       0.79059   0.48492   0.98791   0.12460
H          H       0.80012   0.27051   0.78296   0.12527
H          H       0.03420   0.44544   0.51076   0.10045
H          H       0.85177   0.38942   0.13181   0.11148
H          H       0.25631   0.05126   0.51005   0.12837
H          H       0.82861   0.38640   0.86303   0.11547
H          H       0.53621   0.90161   0.02139   0.10035
H          H       0.34517   0.89105   0.03448   0.11302
H          H       0.53782   0.75328   0.97939   0.11816
H          H       0.94154   0.69222   0.52643   0.11016
H          H       0.11960   0.45355   0.81908   0.10872
H          H       0.19988   0.72949   0.21704   0.12530
H          H       0.27502   0.06549   0.69808   0.11150
H          H       0.24518   0.55677   0.59664   0.11244
H          H       0.72502   0.15355   0.28011   0.11395
H          H       0.98720  -0.00172   0.39725   0.12642
H          H       0.70640   0.38866   0.50320   0.11847
H          H       0.98769   0.56574   0.60990   0.11345
H          H       0.00076   0.33878   0.30699   0.10654
H          H       0.79269   0.91747   0.12987   0.12990
H          H       0.51734   0.24082   0.19854   0.11526
H          H       0.04618   0.27942   0.15074   0.12945
H          H       0.01231   0.43426   0.39010   0.11348
H          H       0.43861   0.95077   0.86127   0.11476
H          H       0.58719   0.97112   0.72799   0.12927
H          H       0.78212   0.01830   0.08293   0.11707
H          H       0.07554   0.71853   0.43301   0.10528
H          H       0.93501   0.73094   0.16857   0.13736
H          H       0.76054   0.04586   0.43910   0.11031
H          H       0.44911   0.92268   0.75865   0.10771
H          H       0.74370   0.94874   0.48995   0.12831
H          H       0.20258   0.93332   0.77052   0.09799
H          H       0.89963   0.44775   0.76504   0.12186
H          H       0.68899   0.21253   0.14103   0.11190
H          H       0.95382   0.72058   0.84926   0.12945
H          H       0.11443   0.27769   0.33188   0.12726
H          H       0.50731   0.69612   0.63761   0.12935
H          H       0.41009   0.52160   0.86277   0.12672
H          H       0.68185   0.52812   0.53927   0.12750
H          H       0.46218   0.24672   0.02061   0.11818
H          H       0.27498   0.84645   0.71989   0.11403
H          H       0.56106   0.32298   0.08923   0.11038
H          H       0.96423   0.44980   0.65061   0.12075
H          H       0.62782   0.57626   0.26526   0.12925
H          H       0.22149   0.44156   0.63719   0.12821
H          H       0.08905   0.37657   0.91347   0.13007
H          H       0.79742   0.06668   0.22948   0.09791
H          H       0.06500   0.26906   0.83143   0.13738
H          H       0.82848   0.32800   0.52712   0.12081
H          H       0.88727   0.26715   0.36686   0.11391
H          H       0.14823   0.61058   0.86819   0.11147
H          H       0.26417   0.49448   0.72135   0.11188
H          H       0.44357   0.83029   0.05972   0.10185
H          H       0.99497   0.14885   0.44294   0.12885
H          H       0.29360   0.61134   0.49680   0.11855
H          H       0.03995   0.50441   0.73884   0.10940
H          H       0.96005   0.49559   0.26116   0.10937
H          H       0.77851   0.55844   0.36281   0.12821
H          H       0.21789   0.98170   0.91707   0.11704
H          H       0.03577   0.55021   0.34940   0.12078
H          H       0.79352   0.39899   0.04381   0.11025
H          H       0.96580   0.55457   0.48924   0.10044
H          H       0.37218   0.42374   0.73474   0.12919
H          H       0.90276   0.18407   0.61721   0.12521
H          H       0.01280   0.00172   0.60275   0.12639
H          H       0.08706   0.99365   0.74869   0.12450
H          H       0.62578   0.35442   0.32857   0.10871
H          H       0.73583   0.50552   0.27865   0.11194
H          H       0.23278   0.11194   0.06801   0.12301
H          H       0.41097   0.31347   0.18134   0.12347
H          H       0.31102   0.78747   0.85897   0.11192
H          H       0.72498   0.93451   0.30192   0.11142
H          H       0.90802   0.22081   0.17950   0.11439
H          H       0.92447   0.28147   0.56699   0.10533
H          H       0.37422   0.64558   0.67143   0.10866
H          H       0.26401   0.91130   0.65514   0.11014
H          H       0.88557   0.72231   0.66812   0.12719
H          H       0.20941   0.51508   0.01209   0.12452
H          H       0.58903   0.68653   0.81866   0.12354
H          H       0.43894   0.67702   0.91077   0.11047
H          H       0.44334   0.74492   0.11602   0.12106
H          H       0.17152   0.67200   0.47288   0.12081
H          H       0.48267   0.75918   0.80146   0.11531
H          H       0.56139   0.04923   0.13873   0.11474
H          H       0.91095   0.62343   0.08653   0.13004
H          H       0.76602   0.03713   0.97399   0.11550
H          H       0.05847   0.30778   0.47358   0.11007
H          H       0.46379   0.09840   0.97861   0.10038
H          H       0.55666   0.25508   0.88398   0.12098
H          H       0.55089   0.07732   0.24136   0.10765
H          H       0.75482   0.44323   0.40336   0.11239
H          H       0.11273   0.73285   0.63314   0.11392
H          H       0.73599   0.08871   0.34486   0.11006
H          H       0.09198   0.77919   0.82050   0.11441
H          H       0.10037   0.55226   0.23496   0.12189
H          H       0.91294   0.00635   0.25131   0.12444
H          H       0.88040   0.54645   0.18092   0.10881
H          H       0.00504   0.85116   0.55706   0.12881
H          H       0.23946   0.95414   0.56090   0.11032
C          C       0.32929   0.95993   0.89264   0.08246
C          C       0.32500   0.77851   0.97274   0.02960
C          C       0.55499   0.83639   0.68097  -0.01857
C          C       0.32541   0.72202   0.00349   0.08160
C          C       0.46229   0.87311   0.73240  -0.14530
C          C       0.63351   0.36803   0.24032   0.08536
C          C       0.65148   0.97973   0.00093   0.07408
C          C       0.95020   0.29322   0.19155  -0.12503
C          C       0.84179   0.31457   0.49192  -0.18040
C          C       0.32812   0.57394   0.10126   0.60301
C          C       0.30883   0.13534   0.81313   0.54104
C          C       0.18428   0.53413   0.60896  -0.12207
C          C       0.34168   0.92965   0.97158   0.02515
C          C       0.80592   0.00369   0.58839   0.59528
C          C       0.21798   0.63963   0.76208  -0.16904
C          C       0.67715   0.25013   0.26410   0.03681
C          C       0.75826   0.45521   0.50870  -0.14444
C          C       0.15099   0.62116   0.53070   0.03215
C          C       0.65832   0.07036   0.02842   0.02516
C          C       0.68672   0.25115   0.07788   0.04067
C          C       0.03922   0.61231   0.10778   0.00021
C          C       0.20673   0.92354   0.52215  -0.12204
C          C       0.87943   0.35988   0.85596  -0.11452
C          C       0.80959   0.61832   0.53431  -0.02301
C          C       0.97883   0.44779   0.23732  -0.13201
C          C       0.95468   0.76740   0.69122  -0.08188
C          C       0.60783   0.28608   0.91914  -0.08774
C          C       0.31329   0.74885   0.92212   0.04064
C          C       0.45881   0.68596   0.78702  -0.12798
C          C       0.08181   0.37348   0.67312   0.53827
C          C       0.18923   0.50282   0.83936  -0.09388
C          C       0.39217   0.71392   0.08086  -0.08779
C          C       0.02117   0.55221   0.76268  -0.13206
C          C       0.66457   0.46283   0.25809  -0.13960
C          C       0.32285   0.74987   0.73590   0.03681
C          C       0.88343   0.20890   0.54981  -0.13316
C          C       0.93130   0.26393   0.80239  -0.03172
C          C       0.28494   0.02526   0.02558  -0.14401
C          C       0.53771   0.12689   0.26760  -0.14524
C          C       0.97213   0.64444   0.11588  -0.10675
C          C       0.94240   0.52002   0.77738  -0.08178
C          C       0.84901   0.37884   0.46930   0.03222
C          C       0.86420   0.21535   0.42431   0.04576
C          C       0.73701   0.52269   0.16247  -0.05741
C          C       0.16251   0.53824   0.50659   0.07116
C          C       0.57950   0.28315   0.31658  -0.12602
C          C       0.13317   0.88728   0.74819  -0.13853
C          C       0.83749   0.46176   0.49341   0.07108
C          C       0.97385   0.52515   0.36067  -0.09865
C          C       0.04980   0.70679   0.80845  -0.12488
C          C       0.67293   0.37570   0.93282  -0.04183
C          C       0.90379   0.54819   0.50030  -0.13389
C          C       0.86842   0.36285   0.42368   0.04191
C          C       0.19408   0.99631   0.41161   0.59534
C          C       0.05761   0.47998   0.22263  -0.08174
C          C       0.93580   0.10233   0.41219  -0.11914
C          C       0.42050   0.71685   0.68342  -0.12600
C          C       0.46126   0.09955   0.28479  -0.08851
C          C       0.34332   0.27705   0.07120   0.55062
C          C       0.58713   0.81555   0.97796  -0.09479
C          C       0.33831   0.86827   0.99585  -0.17836
C          C       0.92581   0.35396   0.22329   0.07645
C          C       0.65668   0.72295   0.92880   0.55066
C          C       0.33323   0.90056   0.92123   0.02725
C          C       0.39576   0.49691   0.74941  -0.06257
C          C       0.38829   0.98001   0.86348  -0.14752
C          C       0.97310   0.67450   0.82461  -0.08505
C          C       0.14960   0.76670   0.52877   0.04274
C          C       0.19041   0.38168   0.46569  -0.02319
C          C       0.64725   0.45915   0.13609  -0.06551
C          C       0.13158   0.63715   0.57632   0.04190
C          C       0.74186   0.94599   0.13104  -0.08387
C          C       0.41287   0.18445   0.02204  -0.09467
C          C       0.67459   0.27798   0.99651   0.08160
C          C       0.06823   0.98198   0.61337  -0.06738
C          C       0.91150   0.18876   0.75671   0.59749
C          C       0.82318   0.24355   0.25574   0.04245
C          C       0.78202   0.36037   0.23792  -0.16903
C          C       0.81078   0.49718   0.16064  -0.09393
C          C       0.21568   0.01755   0.66767  -0.08891
C          C       0.04532   0.23260   0.30878  -0.08181
C          C       0.91819   0.62653   0.32688   0.53827
C          C       0.40331   0.78066   0.71756   0.07227
C          C       0.36174   0.13408   0.33677   0.58939
C          C       0.87236   0.15438   0.57818  -0.07774
C          C       0.15591   0.68017   0.75986   0.03529
C          C       0.67072   0.04007   0.10736   0.08252
C          C       0.78283   0.02167   0.50628  -0.08953
C          C       0.20539   0.59073   0.86702  -0.14547
C          C       0.84300   0.17143   0.49916   0.07645
C          C       0.69118   0.86467   0.18687   0.54094
C          C       0.03971   0.53995   0.61702  -0.14037
C          C       0.61603   0.96127   0.16161  -0.10338
C          C       0.67188   0.42606   0.89874   0.60296
C          C       0.48166   0.35421   0.20349  -0.06966
C          C       0.17905   0.93977   0.44331  -0.02439
C          C       0.73593   0.00242   0.10514  -0.12718
C          C       0.17682   0.75645   0.74426   0.04245
C          C       0.08255   0.41884   0.19190  -0.03650
C          C       0.86419   0.29610   0.81126  -0.08697
C          C       0.79327   0.07647   0.47785  -0.12219
C          C       0.83058   0.54931   0.82196   0.59807
C          C       0.91745   0.58116   0.80810  -0.03654
C          C       0.98191   0.26622   0.29505  -0.13313
C          C       0.86683   0.11272   0.25181  -0.13850
C          C       0.60836   0.23852   0.95087  -0.13935
C          C       0.13581   0.78465   0.57569   0.04575
C          C       0.71506   0.97474   0.97442  -0.14392
C          C       0.08850   0.81124   0.24329   0.59743
C          C       0.32707   0.62431   0.06718  -0.04173
C          C       0.14520   0.04339   0.65243  -0.04776
C          C       0.21717   0.97833   0.49372  -0.08946
C          C       0.15822   0.68543   0.50808  -0.18039
C          C       0.89137   0.20662   0.26667   0.07107
C          C       0.30152   0.67356   0.75138   0.03951
C          C       0.88107   0.42954   0.39855   0.08080
C          C       0.51270   0.44892   0.22286  -0.04395
C          C       0.58670   0.89877   0.00175  -0.13627
C          C       0.93139   0.07893   0.26392  -0.07903
C          C       0.75313   0.61605   0.19194   0.59948
C          C       0.66169   0.13173   0.00415  -0.17834
C          C       0.11893   0.57046   0.60145   0.08083
C          C       0.36650   0.63197   0.75968   0.08538
C          C       0.13503   0.87200   0.60275   0.07870
C          C       0.49446   0.74462   0.66459  -0.09222
C          C       0.79072   0.06846   0.35621  -0.14437
C          C       0.25601   0.46736   0.47145  -0.09216
C          C       0.17135   0.47005   0.63166  -0.09324
C          C       0.98620   0.70496   0.16146  -0.09159
C          C       0.44907   0.49074   0.21299   0.58678
C          C       0.90903   0.89518   0.69216   0.58998
C          C       0.65286   0.81134   0.95300  -0.02764
C          C       0.81572   0.46587   0.39104  -0.12215
C          C       0.02787   0.35556   0.88412  -0.10662
C          C       0.87439   0.28084   0.40219  -0.17548
C          C       0.55093   0.50926   0.78701   0.58668
C          C       0.74399   0.53265   0.52855  -0.09227
C          C       0.10863   0.79338   0.73333   0.07116
C          C       0.25814   0.05401   0.86896  -0.08383
C          C       0.34714   0.18866   0.04700  -0.02771
C          C       0.63826   0.86592   0.66323   0.58945
C          C       0.06870   0.73607   0.19761  -0.03176
C          C       0.20929   0.93155   0.64379  -0.14442
C          C       0.31979   0.81092   0.89783  -0.17695
C          C       0.09098   0.10482   0.30784   0.58986
C          C       0.60424   0.50309   0.25059  -0.06252
C          C       0.11657   0.79110   0.45019  -0.13317
C          C       0.28362   0.10816   0.04879  -0.09424
C          C       0.63128   0.37143   0.10870  -0.13196
C          C       0.12057   0.64012   0.14404  -0.11448
C          C       0.41330   0.10123   0.99825  -0.13633
C          C       0.01809   0.73378   0.70495  -0.13323
C          C       0.97436   0.45176   0.94294   0.51619
C          C       0.73907   0.20917   0.26611  -0.18015
C          C       0.79461   0.40927   0.13298  -0.14534
C          C       0.89031   0.62545   0.52089  -0.09066
C          C       0.84409   0.31983   0.24014   0.03532
C          C       0.01380   0.29505   0.83854  -0.09165
C          C       0.82866   0.52995   0.36834  -0.09322
C          C       0.84772   0.86467   0.32133   0.60564
C          C       0.82095   0.06023   0.55669  -0.02428
C          C       0.06861   0.92107   0.73608  -0.07895
C          C       0.85480   0.95661   0.34757  -0.04782
C          C       0.85040   0.23330   0.47123   0.04274
C          C       0.34852   0.02027  -0.00093   0.07412
C          C       0.53874   0.90045   0.71521  -0.08851
C          C       0.16942   0.45070   0.17804   0.59797
C          C       0.68157   0.92444   0.15927  -0.02823
C          C       0.26299   0.47731   0.83753  -0.05748
C          C       0.25985   0.63236   0.99050  -0.12609
C          C       0.78432   0.98245   0.33233  -0.08894
C          C       0.96029   0.46005   0.38298  -0.14031
C          C       0.51834   0.64579   0.79651  -0.06963
C          C       0.38397   0.03873   0.83839  -0.10334
C          C       0.24687   0.38395   0.80806   0.59958
C          C       0.02564   0.54825   0.05706   0.51615
C          C       0.15229   0.13534   0.67867   0.60567
C          C       0.12764   0.84563   0.42182  -0.07774
C          C       0.97911   0.86123   0.70715  -0.02226
C          C       0.86497   0.12801   0.39725   0.07868
C          C       0.70459   0.34564   0.10668   0.08078
C          C       0.44501   0.16361   0.31903  -0.01853
C          C       0.31843   0.07556   0.84073  -0.02829
C          C       0.36872   0.62857   0.89130  -0.13195
C          C       0.59669   0.21934   0.28244   0.07226
C          C       0.06420   0.89767   0.58781  -0.11917
C          C       0.12561   0.71916   0.59781  -0.17549
C          C       0.69849   0.32644   0.24862   0.03949
C          C       0.26108   0.58370   0.02178  -0.08147
C          C       0.02089   0.13877   0.29285  -0.02227
C          C       0.09245   0.44010   0.64739  -0.02807
C          C       0.26093   0.79083   0.73389  -0.18022
C          C       0.67501   0.22149   0.02726   0.02960
C          C       0.68021   0.18908   0.10217  -0.17694
C          C       0.10970   0.37455   0.47911  -0.09046
C          C       0.79521   0.70216   0.55463   0.54158
C          C       0.39164   0.76148   0.04913  -0.13923
C          C       0.96078   0.38769   0.89222   0.00018
C          C       0.74015   0.36765   0.00951  -0.12604
C          C       0.26407   0.99758   0.89486  -0.12723
C          C       0.29542   0.65436   0.89333   0.08089
C          C       0.54119   0.31404   0.21298  -0.12803
C          C       0.61172   0.02000   0.13652  -0.14759
C          C       0.13581   0.70390   0.18874  -0.08691
C          C       0.73892   0.41630   0.97822  -0.08135
C          C       0.50554   0.25538   0.33541  -0.09223
C          C       0.33543   0.53717   0.74191  -0.13962
C          C       0.07419   0.64604   0.77671   0.07645
C          C       0.09622   0.45181   0.49970  -0.13416
C          C       0.20480   0.29785   0.44537   0.54171
C          C       0.02691   0.32550   0.17539  -0.08501
C          C       0.71638   0.89184   0.95121  -0.09428
C          C       0.15700   0.82858   0.50084   0.07635
C          C       0.48730   0.55108   0.77714  -0.04395
C          C       0.24175   0.54479   0.49130  -0.14446
C          C       0.66677   0.09944   0.07877   0.02722
C          C       0.35275   0.54085   0.86391  -0.06553
C          C       0.93178   0.01802   0.38663  -0.06730
C          C       0.90756   0.55990   0.35261  -0.02810
C          C       0.02616   0.47485   0.63933  -0.09869
O          O       0.70310   0.94134   0.69070  -0.55337
O          O       0.23237   0.19610   0.70522  -0.59058
O          O       0.31790   0.36515   0.80929  -0.52959
O          O       0.63722   0.81378   0.62322  -0.53445
O          O       0.14992   0.35304   0.68440  -0.54270
O          O       0.36770   0.44094   0.18328  -0.60335
O          O       0.02793   0.81327   0.26535  -0.55497
O          O       0.98291   0.56681   0.02448  -0.31416
O          O       0.36278   0.18622   0.37678  -0.53433
O          O       0.00786   0.33878   0.68442  -0.55206
O          O       0.05936   0.49188   0.05648  -0.30030
O          O       0.07953   0.14901   0.67302  -0.50950
O          O       0.14144   0.22121   0.43654  -0.50920
O          O       0.71748   0.69410   0.56355  -0.53223
O          O       0.59028   0.64855   0.91843  -0.52727
O          O       0.76422   0.84907   0.19054  -0.54073
O          O       0.07114   0.02026   0.28863  -0.52521
O          O       0.23579   0.15093   0.80946  -0.54086
O          O       0.82998   0.04793   0.63358  -0.54855
O          O       0.63008   0.82901   0.20651  -0.54260
O          O       0.85009   0.64696   0.31560  -0.54277
O          O       0.73457   0.72961   0.91890  -0.56496
O          O       0.01709   0.43319   0.97552  -0.31415
O          O       0.16677   0.16285   0.33840  -0.57406
O          O       0.83323   0.83715   0.66160  -0.57428
O          O       0.77061   0.91756   0.56818  -0.54393
O          O       0.85856   0.77879   0.56346  -0.50901
O          O       0.47069   0.57546   0.23389  -0.50145
O          O       0.83439   0.67427   0.21582  -0.59688
O          O       0.52931   0.42454   0.76611  -0.50154
O          O       0.29690   0.05866   0.30930  -0.55339
O          O       0.94064   0.50812   0.94352  -0.30031
O          O       0.36992   0.17099   0.79349  -0.54255
O          O       0.40973   0.35145   0.08157  -0.52713
O          O       0.92047   0.85099   0.32698  -0.50942
O          O       0.16561   0.32573   0.78418  -0.59702
O          O       0.92886   0.97974   0.71137  -0.52513
O          O       0.83215   0.12325   0.74297  -0.51501
O          O       0.97207   0.18673   0.73466  -0.55498
O          O       0.36632   0.62241   0.14654  -0.54646
O          O       0.63230   0.55906   0.81673  -0.60317
O          O       0.99214   0.66122   0.31558  -0.55199
O          O       0.17002   0.95208   0.36642  -0.54868
O          O       0.68210   0.63485   0.19071  -0.52965
O          O       0.26543   0.27039   0.08110  -0.56503
O          O       0.63368   0.37759   0.85346  -0.54658
O          O       0.22939   0.08244   0.43182  -0.54381
O          O       0.29177   0.48770   0.08389  -0.54172
O          O       0.17897   0.39639   0.14286  -0.53940
O          O       0.76763   0.80390   0.29478  -0.59063
O          O       0.70823   0.51230   0.91611  -0.54156
O          O       0.77059   0.46798   0.79567  -0.55140
O          O       0.16785   0.87675   0.25703  -0.51486
O          O       0.28253   0.30591   0.43645  -0.53213
O          O       0.22941   0.53202   0.20433  -0.55123
O          O       0.82103   0.60361   0.85714  -0.53935

