data_crystal

_audit_creation_method 'AiiDA-DDEC plugin'

_cell_length_a        14.07693
_cell_length_b        19.67495
_cell_length_c        19.68329

_cell_angle_alpha     90.06185
_cell_angle_beta     90.07183
_cell_angle_gamma     89.92906

_symmetry_space_group_name_Hall 'P 1'
_symmetry_space_group_name_H-M  'P 1'

loop_
_symmetry_equiv_pos_as_xyz
 'x,y,z'

loop_
_atom_site_label
_atom_site_type_symbol
_atom_site_fract_x
_atom_site_fract_y
_atom_site_fract_z
_atom_site_charge
Ni         Ni      0.83420   0.38517   0.95893   0.92593
Ni         Ni      0.83419   0.11518   0.53971   0.93172
Ni         Ni      0.83232   0.54032   0.38509   0.92678
Ni         Ni      0.83334   0.95919   0.11479   0.93227
Ni         Ni      0.66449   0.61477   0.45979   0.92820
Ni         Ni      0.66557   0.88507   0.03998   0.93502
Ni         Ni      0.66530   0.45939   0.88446   0.93032
Ni         Ni      0.66792   0.04153   0.61498   0.92663
Ni         Ni      0.16556   0.61451   0.04033   0.92552
Ni         Ni      0.16711   0.88510   0.45977   0.93094
Ni         Ni      0.16505   0.45998   0.61460   0.92678
Ni         Ni      0.16440   0.03886   0.88464   0.92995
Ni         Ni      0.33234   0.38510   0.54018   0.93011
Ni         Ni      0.33203   0.11452   0.95835   0.92878
Ni         Ni      0.33322   0.54011   0.11488   0.93245
Ni         Ni      0.33369   0.96057   0.38519   0.93203
H          H       0.12319   0.45601   0.91342   0.12028
H          H       0.27760   0.49120   0.86105   0.11744
H          H       0.29496   0.48651   0.73429   0.10694
H          H       0.01741   0.42027   0.71097   0.11180
H          H       0.88796   0.61147   0.80937   0.12076
H          H       0.03864   0.68001   0.79923   0.10128
H          H       0.15279   0.68211   0.89774   0.09911
H          H       0.98221   0.55405   0.00911   0.10250
H          H       0.12053   0.04510   0.58644   0.11927
H          H       0.27515   0.00901   0.63797   0.11891
H          H       0.29379   0.01280   0.76482   0.10672
H          H       0.01683   0.08033   0.78922   0.11102
H          H       0.88995   0.88911   0.69064   0.12165
H          H       0.03999   0.81943   0.70052   0.10187
H          H       0.15368   0.81692   0.60207   0.09879
H          H       0.98350   0.94580   0.49066   0.10289
H          H       0.12105   0.58589   0.45598   0.11924
H          H       0.27587   0.63724   0.49152   0.11675
H          H       0.29543   0.76388   0.48623   0.10588
H          H       0.01850   0.78902   0.41896   0.11140
H          H       0.88825   0.69144   0.61174   0.12212
H          H       0.03901   0.70117   0.68071   0.10193
H          H       0.15278   0.60257   0.68262   0.09977
H          H       0.98203   0.49166   0.55357   0.10270
H          H       0.11966   0.91274   0.04389   0.11890
H          H       0.27528   0.86174   0.00953   0.11742
H          H       0.29557   0.73508   0.01529   0.10710
H          H       0.01826   0.70957   0.08069   0.11155
H          H       0.88830   0.80894   0.88912   0.12134
H          H       0.03827   0.79844   0.81980   0.10160
H          H       0.15231   0.89677   0.81707   0.09930
H          H       0.98292   0.00890   0.94584   0.10467
H          H       0.37891   0.54465   0.41324   0.11887
H          H       0.22423   0.50810   0.36188   0.11818
H          H       0.20500   0.51264   0.23502   0.10683
H          H       0.48087   0.58138   0.21031   0.11223
H          H       0.60922   0.38828   0.30884   0.12186
H          H       0.45906   0.31894   0.29920   0.10150
H          H       0.34569   0.31672   0.39782   0.09928
H          H       0.51668   0.44500   0.50927   0.10247
H          H       0.38012   0.95610   0.08667   0.11891
H          H       0.22460   0.99126   0.13735   0.11743
H          H       0.20454   0.98634   0.26404   0.10720
H          H       0.48151   0.91952   0.28992   0.11069
H          H       0.61026   0.11015   0.18953   0.12205
H          H       0.46017   0.17985   0.19983   0.10147
H          H       0.34668   0.18316   0.10105   0.09809
H          H       0.51673   0.05495   0.98885   0.10232
H          H       0.37797   0.41338   0.95587   0.11893
H          H       0.22344   0.36205   0.99179   0.11749
H          H       0.20365   0.23534   0.98544   0.10653
H          H       0.48008   0.21046   0.91740   0.11043
H          H       0.61049   0.30892   0.11039   0.12206
H          H       0.46101   0.29952   0.18043   0.10236
H          H       0.34745   0.39830   0.18300   0.09849
H          H       0.51698   0.50936   0.05399   0.10303
H          H       0.38010   0.08653   0.54416   0.11888
H          H       0.22473   0.13716   0.50859   0.11693
H          H       0.20387   0.26376   0.51352   0.10805
H          H       0.48064   0.28999   0.58075   0.11115
H          H       0.61088   0.19017   0.38851   0.12217
H          H       0.46026   0.20072   0.31958   0.10147
H          H       0.34564   0.10272   0.31766   0.09882
H          H       0.51646   0.99042   0.44541   0.10301
H          H       0.87728   0.54353   0.08609   0.11994
H          H       0.72279   0.50792   0.13802   0.11710
H          H       0.70414   0.51355   0.26471   0.10673
H          H       0.98117   0.58043   0.28882   0.11152
H          H       0.11132   0.38865   0.19047   0.12100
H          H       0.96081   0.31986   0.20055   0.10168
H          H       0.84687   0.31753   0.10197   0.09896
H          H       0.01758   0.44532   0.99038   0.10284
H          H       0.87931   0.95603   0.41369   0.11903
H          H       0.72448   0.99176   0.36218   0.11779
H          H       0.70499   0.98650   0.23550   0.10644
H          H       0.98151   0.91829   0.21089   0.11113
H          H       0.10980   0.11079   0.30916   0.12196
H          H       0.95961   0.18038   0.29942   0.10245
H          H       0.84617   0.18284   0.39803   0.09938
H          H       0.01699   0.05416   0.50928   0.10349
H          H       0.87669   0.41395   0.54383   0.12041
H          H       0.72268   0.36183   0.50751   0.11731
H          H       0.70475   0.23506   0.51188   0.10706
H          H       0.98140   0.21131   0.58036   0.11129
H          H       0.11007   0.30902   0.38808   0.12186
H          H       0.95942   0.29951   0.31889   0.10159
H          H       0.84585   0.39825   0.31695   0.09875
H          H       0.01743   0.50951   0.44497   0.10295
H          H       0.87920   0.08640   0.95631   0.11971
H          H       0.72443   0.13844   0.99172   0.11767
H          H       0.70538   0.26513   0.98542   0.10780
H          H       0.98196   0.28874   0.91740   0.11201
H          H       0.11046   0.18995   0.10989   0.12215
H          H       0.96080   0.20030   0.17963   0.10120
H          H       0.84725   0.10173   0.18286   0.09818
H          H       0.01726   0.98915   0.05500   0.10251
H          H       0.62001   0.45504   0.58577   0.11875
H          H       0.77455   0.49127   0.63728   0.11814
H          H       0.79393   0.48682   0.76400   0.10733
H          H       0.51736   0.41902   0.78859   0.11283
H          H       0.39015   0.61195   0.69143   0.12234
H          H       0.54071   0.68084   0.70077   0.10223
H          H       0.65363   0.68282   0.60186   0.09990
H          H       0.48229   0.55419   0.49117   0.10365
H          H       0.61949   0.04338   0.91336   0.11918
H          H       0.77537   0.00904   0.86290   0.11711
H          H       0.79649   0.01531   0.73643   0.10635
H          H       0.51927   0.08148   0.71010   0.11084
H          H       0.38836   0.88864   0.80965   0.12172
H          H       0.53920   0.82015   0.79923   0.10082
H          H       0.65297   0.81726   0.89778   0.09917
H          H       0.48228   0.94482   0.01016   0.10335
H          H       0.61967   0.58648   0.04451   0.11905
H          H       0.77423   0.63770   0.00821   0.11745
H          H       0.79365   0.76443   0.01324   0.10616
H          H       0.51750   0.78953   0.08184   0.11192
H          H       0.38939   0.69079   0.88960   0.12183
H          H       0.53912   0.70033   0.81981   0.10202
H          H       0.65243   0.60138   0.81689   0.09877
H          H       0.48251   0.49025   0.94566   0.10300
H          H       0.62037   0.91364   0.45515   0.11933
H          H       0.77475   0.86170   0.49117   0.11782
H          H       0.79339   0.73495   0.48654   0.10726
H          H       0.51656   0.71092   0.41869   0.11146
H          H       0.39035   0.81042   0.61146   0.12174
H          H       0.54083   0.80015   0.68059   0.10126
H          H       0.65481   0.89848   0.68285   0.09778
H          H       0.48408   0.01045   0.55482   0.10235
C          C       0.96092   0.41249   0.83984   0.55811
C          C       0.05847   0.43412   0.81576  -0.06984
C          C       0.13242   0.45482   0.85856  -0.04757
C          C       0.21827   0.47497   0.82955  -0.12772
C          C       0.22867   0.47369   0.75918   0.09528
C          C       0.07369   0.43518   0.74569   0.06517
C          C       0.84036   0.53010   0.92145   0.57382
C          C       0.92303   0.57759   0.91061  -0.07330
C          C       0.93901   0.61421   0.85087  -0.04845
C          C       0.02246   0.65225   0.84553  -0.14949
C          C       0.08667   0.65361   0.89957   0.08495
C          C       0.99135   0.58149   0.96200   0.09089
C          C       0.95921   0.08958   0.66089   0.55805
C          C       0.05676   0.06677   0.68437  -0.07126
C          C       0.13017   0.04588   0.64127  -0.04674
C          C       0.21623   0.02521   0.66984  -0.12786
C          C       0.22728   0.02588   0.74018   0.09736
C          C       0.07268   0.06515   0.75434   0.06602
C          C       0.84240   0.97071   0.57920   0.57353
C          C       0.92482   0.92279   0.58940  -0.07025
C          C       0.94081   0.88605   0.64913  -0.05008
C          C       0.02384   0.84740   0.65430  -0.15166
C          C       0.08771   0.84573   0.60019   0.08662
C          C       0.99261   0.91840   0.53783   0.08763
C          C       0.95940   0.66071   0.41203   0.56064
C          C       0.05773   0.68400   0.43340  -0.06977
C          C       0.13091   0.64071   0.45454  -0.05041
C          C       0.21717   0.66917   0.47487  -0.12780
C          C       0.22876   0.73946   0.47333   0.09475
C          C       0.07429   0.75401   0.43419   0.06571
C          C       0.84036   0.57954   0.53003   0.57441
C          C       0.92310   0.59021   0.57761  -0.07184
C          C       0.93926   0.64989   0.61445  -0.04942
C          C       0.02271   0.65497   0.65267  -0.14986
C          C       0.08669   0.60077   0.65395   0.08474
C          C       0.99125   0.53865   0.58135   0.08912
C          C       0.95897   0.83817   0.08803   0.55898
C          C       0.05696   0.81479   0.06643  -0.07136
C          C       0.13004   0.85800   0.04546  -0.04858
C          C       0.21666   0.82970   0.02576  -0.12734
C          C       0.22857   0.75944   0.02751   0.09522
C          C       0.07365   0.74486   0.06572   0.06483
C          C       0.84071   0.92144   0.96990   0.57390
C          C       0.92349   0.91032   0.92261  -0.07121
C          C       0.93928   0.85038   0.88606  -0.04822
C          C       0.02235   0.84482   0.84764  -0.15049
C          C       0.08640   0.89882   0.84582   0.08599
C          C       0.99165   0.96161   0.91846   0.08793
C          C       0.53900   0.58913   0.33930   0.55728
C          C       0.44166   0.56687   0.31527  -0.07076
C          C       0.36870   0.54560   0.35846  -0.04674
C          C       0.28273   0.52480   0.32997  -0.12852
C          C       0.27136   0.52597   0.25966   0.09536
C          C       0.42542   0.56591   0.24533   0.06397
C          C       0.65765   0.46965   0.42056   0.57533
C          C       0.57499   0.42201   0.41025  -0.07062
C          C       0.55854   0.38536   0.35047  -0.05041
C          C       0.47539   0.34692   0.34542  -0.15023
C          C       0.41169   0.34543   0.39963   0.08643
C          C       0.50736   0.41776   0.46196   0.08864
C          C       0.54086   0.91197   0.16183   0.55819
C          C       0.44274   0.93378   0.18487  -0.06992
C          C       0.36974   0.95475   0.14139  -0.04922
C          C       0.28321   0.97489   0.16949  -0.12770
C          C       0.27132   0.97355   0.23973   0.09649
C          C       0.42596   0.93471   0.25473   0.06647
C          C       0.65806   0.02951   0.07783   0.57511
C          C       0.57554   0.07736   0.08795  -0.07029
C          C       0.55940   0.11365   0.14798  -0.05208
C          C       0.47639   0.15229   0.15332  -0.15047
C          C       0.41262   0.15433   0.09903   0.08630
C          C       0.50777   0.08206   0.03626   0.08864
C          C       0.53894   0.33905   0.91093   0.55740
C          C       0.44103   0.31542   0.93256  -0.07089
C          C       0.36800   0.35859   0.95423  -0.04851
C          C       0.28187   0.33013   0.97464  -0.12868
C          C       0.27018   0.25987   0.97246   0.09455
C          C       0.42445   0.24548   0.93288   0.06790
C          C       0.65822   0.42050   0.02907   0.57569
C          C       0.57585   0.41041   0.07694  -0.06980
C          C       0.55986   0.35066   0.11361  -0.04994
C          C       0.47706   0.34568   0.15238  -0.15087
C          C       0.41322   0.39993   0.15407   0.08662
C          C       0.50806   0.46213   0.08134   0.08665
C          C       0.54089   0.16200   0.58793   0.55905
C          C       0.44236   0.18485   0.56661  -0.06804
C          C       0.36961   0.14130   0.54552  -0.05024
C          C       0.28313   0.16938   0.52504  -0.12687
C          C       0.27086   0.23964   0.52635   0.09350
C          C       0.42522   0.25474   0.56560   0.06342
C          C       0.65830   0.07824   0.46967   0.57524
C          C       0.57566   0.08894   0.42208  -0.06958
C          C       0.55974   0.14881   0.38556  -0.05073
C          C       0.47629   0.15440   0.34743  -0.14865
C          C       0.41189   0.10059   0.34611   0.08660
C          C       0.50740   0.03768   0.41812   0.08823
C          C       0.03899   0.58759   0.15999   0.55806
C          C       0.94116   0.56618   0.18390  -0.07092
C          C       0.86768   0.54500   0.14091  -0.04734
C          C       0.78171   0.52466   0.16966  -0.12860
C          C       0.77058   0.52634   0.23995   0.09525
C          C       0.92520   0.56541   0.25390   0.06744
C          C       0.15896   0.46960   0.07827   0.57440
C          C       0.07637   0.42216   0.08910  -0.07341
C          C       0.06033   0.38572   0.14895  -0.04787
C          C       0.97698   0.34758   0.15422  -0.15099
C          C       0.91296   0.34605   0.10007   0.08596
C          C       0.00832   0.41804   0.03758   0.08952
C          C       0.04068   0.91176   0.33919   0.55971
C          C       0.94248   0.93327   0.31578  -0.07310
C          C       0.86933   0.95461   0.35889  -0.04700
C          C       0.78313   0.97502   0.33032  -0.12921
C          C       0.77158   0.97343   0.26003   0.09603
C          C       0.92588   0.93378   0.24582   0.06646
C          C       0.15794   0.02962   0.42084   0.57483
C          C       0.07531   0.07731   0.41051  -0.06987
C          C       0.05906   0.11390   0.35075  -0.04908
C          C       0.97593   0.15244   0.34562  -0.14999
C          C       0.91217   0.15409   0.39979   0.08624
C          C       0.00762   0.08157   0.46214   0.08745
C          C       0.03892   0.33962   0.58768   0.55940
C          C       0.94105   0.31606   0.56594  -0.06978
C          C       0.86746   0.35907   0.54490  -0.04906
C          C       0.78169   0.33020   0.52415  -0.12666
C          C       0.77098   0.25983   0.52522   0.09506
C          C       0.92533   0.24604   0.56500   0.06481
C          C       0.15783   0.42066   0.46965   0.57452
C          C       0.07547   0.41053   0.42176  -0.07132
C          C       0.05925   0.35069   0.38514  -0.04931
C          C       0.97590   0.34571   0.34683  -0.14999
C          C       0.91202   0.39997   0.34550   0.08576
C          C       0.00778   0.46231   0.41762   0.08802
C          C       0.03932   0.15977   0.91037   0.55650
C          C       0.94216   0.18407   0.93274  -0.07211
C          C       0.86915   0.14120   0.95456  -0.04880
C          C       0.78317   0.17005   0.97484  -0.12714
C          C       0.77194   0.24038   0.97279   0.09445
C          C       0.92620   0.25408   0.93313   0.06615
C          C       0.15785   0.07788   0.02916   0.57625
C          C       0.07571   0.08827   0.07713  -0.07148
C          C       0.05975   0.14836   0.11339  -0.05041
C          C       0.97691   0.15380   0.15203  -0.14908
C          C       0.91313   0.09962   0.15410   0.08564
C          C       0.00811   0.03662   0.08197   0.08811
C          C       0.45901   0.41076   0.66067   0.55863
C          C       0.55687   0.43305   0.68380  -0.06945
C          C       0.62991   0.45409   0.64059  -0.04761
C          C       0.71591   0.47482   0.66918  -0.12843
C          C       0.72735   0.47373   0.73950   0.09405
C          C       0.57315   0.43428   0.75376   0.06391
C          C       0.34134   0.53028   0.57953   0.57435
C          C       0.42411   0.57784   0.59002  -0.06940
C          C       0.44067   0.61468   0.64968  -0.05133
C          C       0.52402   0.65292   0.65457  -0.15006
C          C       0.58754   0.65426   0.60026   0.08557
C          C       0.49172   0.58173   0.53828   0.08628
C          C       0.45885   0.08790   0.83779   0.55952
C          C       0.55730   0.06642   0.81510  -0.07076
C          C       0.63010   0.04527   0.85867  -0.04868
C          C       0.71695   0.02562   0.83071  -0.12859
C          C       0.72943   0.02774   0.76054   0.09512
C          C       0.57472   0.06624   0.74533   0.06528
C          C       0.34028   0.96939   0.92198   0.57467
C          C       0.42288   0.92171   0.91140  -0.07065
C          C       0.43913   0.88552   0.85131  -0.04907
C          C       0.52275   0.84758   0.84574  -0.14840
C          C       0.58676   0.84577   0.89984   0.08494
C          C       0.49103   0.91753   0.96284   0.08711
C          C       0.45891   0.66103   0.08930   0.55881
C          C       0.55662   0.68451   0.06706  -0.07093
C          C       0.62971   0.64127   0.04573  -0.04855
C          C       0.71575   0.66967   0.02512  -0.12628
C          C       0.72722   0.73997   0.02656   0.09521
C          C       0.57306   0.75448   0.06633   0.06484
C          C       0.34173   0.57906   0.97063   0.57355
C          C       0.42403   0.58924   0.92281  -0.07082
C          C       0.44005   0.64907   0.88630  -0.04889
C          C       0.52295   0.65408   0.84766  -0.15094
C          C       0.58660   0.59972   0.84574   0.08687
C          C       0.49165   0.53745   0.91832   0.08854
C          C       0.45881   0.83967   0.41098   0.56127
C          C       0.55654   0.81582   0.43289  -0.07201
C          C       0.62996   0.85879   0.45397  -0.04781
C          C       0.71589   0.83000   0.47458  -0.12653
C          C       0.72695   0.75964   0.47339   0.09508
C          C       0.57246   0.74576   0.43392   0.06634
C          C       0.34230   0.92206   0.53034   0.57643
C          C       0.42512   0.91173   0.57795  -0.07120
C          C       0.44132   0.85187   0.61447  -0.05067
C          C       0.52470   0.84645   0.65269  -0.15136
C          C       0.58874   0.90050   0.65419   0.08789
C          C       0.49316   0.96319   0.58211   0.08858
N          N       0.15670   0.45446   0.71803  -0.19635
N          N       0.07082   0.61879   0.95737  -0.20203
N          N       0.15569   0.04504   0.78160  -0.19733
N          N       0.07183   0.88067   0.54243  -0.20200
N          N       0.15763   0.78121   0.45369  -0.20014
N          N       0.07072   0.54305   0.61879  -0.20046
N          N       0.15723   0.71783   0.04662  -0.19555
N          N       0.07066   0.95671   0.88072  -0.19936
N          N       0.34236   0.54587   0.21815  -0.19649
N          N       0.42794   0.38038   0.45741  -0.20101
N          N       0.34248   0.95423   0.28156  -0.19895
N          N       0.42850   0.11973   0.04101  -0.20163
N          N       0.34116   0.21828   0.95229  -0.20004
N          N       0.42897   0.45763   0.11904  -0.19974
N          N       0.34171   0.28156   0.54593  -0.19692
N          N       0.42779   0.04272   0.38090  -0.20065
N          N       0.84204   0.54602   0.28132  -0.20034
N          N       0.92891   0.38071   0.04218  -0.20167
N          N       0.84260   0.95335   0.21852  -0.20082
N          N       0.92830   0.11916   0.45754  -0.19988
N          N       0.84246   0.21856   0.54512  -0.19605
N          N       0.92814   0.45778   0.38040  -0.19986
N          N       0.84319   0.28166   0.95282  -0.19655
N          N       0.92895   0.04154   0.11958  -0.20131
N          N       0.65626   0.45406   0.78105  -0.19701
N          N       0.57104   0.61920   0.54257  -0.19817
N          N       0.65857   0.04737   0.71860  -0.19831
N          N       0.57063   0.88032   0.95785  -0.20005
N          N       0.65620   0.78159   0.04652  -0.19766
N          N       0.57063   0.54190   0.88053  -0.19959
N          N       0.65551   0.71830   0.45372  -0.19679
N          N       0.57268   0.95839   0.61947  -0.20251
O          O       0.95655   0.39784   0.90407  -0.55213
O          O       0.89514   0.41095   0.79784  -0.47660
O          O       0.84736   0.49105   0.97254  -0.54012
O          O       0.77249   0.53225   0.87850  -0.53497
O          O       0.95367   0.10128   0.59603  -0.55182
O          O       0.89503   0.09444   0.70370  -0.47237
O          O       0.84776   0.00948   0.52784  -0.54126
O          O       0.77601   0.96937   0.62315  -0.53585
O          O       0.95332   0.59637   0.39772  -0.55348
O          O       0.89477   0.70360   0.41071  -0.47968
O          O       0.84729   0.52838   0.49104  -0.54079
O          O       0.77254   0.62260   0.53209  -0.53487
O          O       0.95312   0.90276   0.10107  -0.55323
O          O       0.89464   0.79523   0.09090  -0.47716
O          O       0.84741   0.97243   0.00923  -0.54002
O          O       0.77283   0.87860   0.96695  -0.53580
O          O       0.54324   0.60214   0.40402  -0.55116
O          O       0.60431   0.59250   0.29715  -0.47322
O          O       0.65216   0.50859   0.47187  -0.54348
O          O       0.72436   0.46784   0.37687  -0.53728
O          O       0.54663   0.89899   0.09722  -0.55303
O          O       0.60513   0.90891   0.20487  -0.47635
O          O       0.65221   0.99034   0.02667  -0.54128
O          O       0.72472   0.03127   0.12167  -0.53668
O          O       0.54353   0.40349   0.89676  -0.55232
O          O       0.60434   0.29670   0.90912  -0.47749
O          O       0.65208   0.47155   0.98989  -0.54271
O          O       0.72520   0.37695   0.03093  -0.53608
O          O       0.54721   0.09766   0.60209  -0.55241
O          O       0.60517   0.20506   0.58947  -0.47808
O          O       0.65244   0.02711   0.50867  -0.54213
O          O       0.72525   0.12177   0.46765  -0.53877
O          O       0.04356   0.60174   0.09562  -0.55085
O          O       0.10461   0.58922   0.20211  -0.47528
O          O       0.15244   0.50857   0.02709  -0.54139
O          O       0.22653   0.46754   0.12145  -0.53612
O          O       0.04678   0.89888   0.40377  -0.55297
O          O       0.10506   0.90901   0.29630  -0.47793
O          O       0.15243   0.99071   0.47202  -0.54066
O          O       0.22460   0.03149   0.37705  -0.53519
O          O       0.04353   0.40397   0.60220  -0.55127
O          O       0.10416   0.29711   0.58924  -0.47664
O          O       0.15209   0.47177   0.50884  -0.54266
O          O       0.22462   0.37693   0.46778  -0.53600
O          O       0.04349   0.09474   0.89883  -0.55154
O          O       0.10452   0.20183   0.90564  -0.47212
O          O       0.15212   0.02655   0.99021  -0.54123
O          O       0.22432   0.12174   0.03068  -0.53782
O          O       0.45290   0.39779   0.59608  -0.55252
O          O       0.39495   0.40729   0.70373  -0.47639
O          O       0.34745   0.49129   0.52833  -0.54216
O          O       0.27417   0.53231   0.62288  -0.53686
O          O       0.45254   0.10084   0.90236  -0.55396
O          O       0.39479   0.09087   0.79460  -0.47977
O          O       0.34713   0.00909   0.97265  -0.53901
O          O       0.27275   0.96663   0.87875  -0.53630
O          O       0.45308   0.59617   0.10094  -0.55478
O          O       0.39472   0.70395   0.09408  -0.47715
O          O       0.34750   0.52779   0.00949  -0.54018
O          O       0.27520   0.62301   0.96910  -0.53644
O          O       0.45341   0.90438   0.39822  -0.55210
O          O       0.39410   0.79717   0.40752  -0.47405
O          O       0.34772   0.97332   0.49145  -0.54311
O          O       0.27568   0.87827   0.53219  -0.53951
O          O       0.75028   0.39094   0.88967  -0.51181
O          O       0.75153   0.11060   0.60897  -0.51098
O          O       0.74817   0.60935   0.39092  -0.51115
O          O       0.74945   0.89055   0.10846  -0.51496
O          O       0.24849   0.60871   0.10984  -0.51069
O          O       0.25085   0.89153   0.39083  -0.51181
O          O       0.24846   0.39077   0.60907  -0.51028
O          O       0.24787   0.10771   0.88943  -0.51308

