data_crystal

_audit_creation_method 'AiiDA-DDEC plugin'

_cell_length_a        20.48269
_cell_length_b        20.48300
_cell_length_c        44.95833

_cell_angle_alpha     93.48257
_cell_angle_beta     93.47858
_cell_angle_gamma     96.44376

_symmetry_space_group_name_Hall 'P 1'
_symmetry_space_group_name_H-M  'P 1'

loop_
_symmetry_equiv_pos_as_xyz
 'x,y,z'

loop_
_atom_site_label
_atom_site_type_symbol
_atom_site_fract_x
_atom_site_fract_y
_atom_site_fract_z
_atom_site_charge
Cu         Cu      0.09392   0.53352   0.68592   0.90796
Cu         Cu      0.11376   0.65277   0.69378   0.91211
Cu         Cu      0.53352   0.09392   0.18592   0.90795
Cu         Cu      0.65278   0.11376   0.19378   0.91219
Cu         Cu      0.46647   0.90607   0.81408   0.90795
Cu         Cu      0.34722   0.88624   0.80622   0.91225
Cu         Cu      0.90608   0.46647   0.31408   0.90798
Cu         Cu      0.88624   0.34722   0.30622   0.91212
H          H       0.93718   0.50876   0.61640   0.12676
H          H       0.85652   0.52062   0.57366   0.12181
H          H       0.90048   0.73177   0.58550   0.12137
H          H       0.98149   0.71906   0.62793   0.12544
H          H       0.63148   0.53088   0.46143   0.10236
H          H       0.72016   0.53049   0.50080   0.11904
H          H       0.73940   0.74264   0.51037   0.11810
H          H       0.65019   0.74275   0.47090   0.11501
H          H       0.27596   0.69262   0.63754   0.12840
H          H       0.34548   0.69963   0.59389   0.12528
H          H       0.25003   0.51076   0.55757   0.11368
H          H       0.18277   0.50327   0.60204   0.12549
H          H       0.52223   0.73659   0.47124   0.11476
H          H       0.44033   0.72820   0.50933   0.11852
H          H       0.41890   0.51657   0.49492   0.11231
H          H       0.50196   0.52520   0.45773   0.11239
H          H       0.47233   0.24551   0.24566   0.12492
H          H       0.46255   0.33042   0.28691   0.11944
H          H       0.67167   0.34163   0.30906   0.11838
H          H       0.68034   0.25611   0.26832   0.12339
H          H       0.69191   0.96957   0.25714   0.12605
H          H       0.69080   0.90251   0.30166   0.11793
H          H       0.48513   0.92365   0.30856   0.11831
H          H       0.48658   0.98896   0.26344   0.12680
H          H       0.68347   0.70442   0.41899   0.11358
H          H       0.68791   0.78771   0.38159   0.11946
H          H       0.47707   0.78452   0.38026   0.11944
H          H       0.47293   0.70109   0.41767   0.11333
H          H       0.67456   0.57860   0.41459   0.10559
H          H       0.66721   0.49245   0.37351   0.10907
H          H       0.45565   0.48324   0.36858   0.11902
H          H       0.46321   0.56953   0.40977   0.11037
H          H       0.50876   0.93718   0.11640   0.12667
H          H       0.52062   0.85652   0.07366   0.12156
H          H       0.73178   0.90048   0.08550   0.12159
H          H       0.71907   0.98149   0.12793   0.12568
H          H       0.53087   0.63148   0.96143   0.10237
H          H       0.53048   0.72016   0.00080   0.11922
H          H       0.74264   0.73939   0.01036   0.11803
H          H       0.74274   0.65017   0.97090   0.11488
H          H       0.69262   0.27597   0.13754   0.12525
H          H       0.69963   0.34548   0.09389   0.12543
H          H       0.51076   0.25003   0.05757   0.11352
H          H       0.50327   0.18278   0.10203   0.12533
H          H       0.73658   0.52223   0.97124   0.11459
H          H       0.72819   0.44034   0.00933   0.11844
H          H       0.51656   0.41889   0.99492   0.11234
H          H       0.52519   0.50194   0.95773   0.11255
H          H       0.24551   0.47233   0.74567   0.12504
H          H       0.33042   0.46255   0.78691   0.11948
H          H       0.34164   0.67167   0.80907   0.11829
H          H       0.25612   0.68034   0.76832   0.12327
H          H       0.96957   0.69190   0.75714   0.12590
H          H       0.90250   0.69079   0.80166   0.11780
H          H       0.92365   0.48513   0.80855   0.11850
H          H       0.98896   0.48658   0.76344   0.12992
H          H       0.70440   0.68346   0.91899   0.11341
H          H       0.78770   0.68790   0.88160   0.11929
H          H       0.78452   0.47707   0.88026   0.11792
H          H       0.70109   0.47291   0.91767   0.11361
H          H       0.57860   0.67454   0.91459   0.10550
H          H       0.49246   0.66720   0.87351   0.10909
H          H       0.48323   0.45564   0.86858   0.11916
H          H       0.56951   0.46320   0.90977   0.11040
H          H       0.49123   0.06281   0.88360   0.12657
H          H       0.47937   0.14347   0.92634   0.12130
H          H       0.26821   0.09952   0.91450   0.12189
H          H       0.28093   0.01850   0.87207   0.12604
H          H       0.46913   0.36852   0.03857   0.10212
H          H       0.46951   0.27983   0.99920   0.11906
H          H       0.25735   0.26060   0.98964   0.11835
H          H       0.25725   0.34982   0.02910   0.11507
H          H       0.30737   0.72403   0.86246   0.12548
H          H       0.30036   0.65451   0.90611   0.12582
H          H       0.48923   0.74996   0.94243   0.11326
H          H       0.49672   0.81722   0.89797   0.12485
H          H       0.26342   0.47777   0.02876   0.11498
H          H       0.27180   0.55965   0.99067   0.11855
H          H       0.48343   0.58110   0.00508   0.11205
H          H       0.47480   0.49806   0.04227   0.11247
H          H       0.75449   0.52767   0.25433   0.12473
H          H       0.66958   0.53745   0.21309   0.11927
H          H       0.65836   0.32832   0.19093   0.11853
H          H       0.74388   0.31966   0.23168   0.12356
H          H       0.03042   0.30809   0.24286   0.12615
H          H       0.09749   0.30920   0.19834   0.11792
H          H       0.07635   0.51487   0.19145   0.11802
H          H       0.01103   0.51342   0.23656   0.12972
H          H       0.29560   0.31653   0.08101   0.11362
H          H       0.21229   0.31210   0.11840   0.11963
H          H       0.21547   0.52293   0.11974   0.11936
H          H       0.29891   0.52708   0.08233   0.11312
H          H       0.42139   0.32545   0.08541   0.10586
H          H       0.50754   0.33279   0.12649   0.10914
H          H       0.51677   0.54435   0.13142   0.11881
H          H       0.43048   0.53679   0.09023   0.11055
H          H       0.06282   0.49123   0.38360   0.12670
H          H       0.14347   0.47938   0.42634   0.12144
H          H       0.09952   0.26822   0.41450   0.12159
H          H       0.01850   0.28093   0.37207   0.12592
H          H       0.36851   0.46911   0.53857   0.10182
H          H       0.27984   0.46951   0.49920   0.11887
H          H       0.26059   0.25735   0.48963   0.11843
H          H       0.34980   0.25724   0.52910   0.11507
H          H       0.72403   0.30738   0.36246   0.12871
H          H       0.65452   0.30036   0.40611   0.12564
H          H       0.74996   0.48924   0.44243   0.11353
H          H       0.81722   0.49673   0.39796   0.12515
H          H       0.47776   0.26340   0.52876   0.11508
H          H       0.55966   0.27180   0.49067   0.11861
H          H       0.58109   0.48342   0.50508   0.11192
H          H       0.49804   0.47479   0.54227   0.11228
H          H       0.52767   0.75448   0.75434   0.12456
H          H       0.53745   0.66957   0.71309   0.11919
H          H       0.32832   0.65836   0.69094   0.11864
H          H       0.31965   0.74388   0.73168   0.12361
H          H       0.30808   0.03042   0.74286   0.12638
H          H       0.30920   0.09749   0.69834   0.11808
H          H       0.51487   0.07635   0.69144   0.12026
H          H       0.51341   0.01104   0.73656   0.12654
H          H       0.31652   0.29558   0.58101   0.11370
H          H       0.31209   0.21229   0.61841   0.12088
H          H       0.52292   0.21548   0.61974   0.11923
H          H       0.52707   0.29890   0.58233   0.11277
H          H       0.32544   0.42139   0.58541   0.10611
H          H       0.33278   0.50754   0.62649   0.10912
H          H       0.54435   0.51675   0.63142   0.11881
H          H       0.53678   0.43046   0.59023   0.11020
C          C       0.96428   0.61325   0.62470  -0.03479
C          C       0.92876   0.55720   0.60942  -0.09059
C          C       0.88393   0.56381   0.58564  -0.14161
C          C       0.87320   0.62694   0.57657   0.14399
C          C       0.90871   0.68311   0.59224  -0.14098
C          C       0.95370   0.67612   0.61591  -0.08936
C          C       0.63487   0.63698   0.46268   0.06694
C          C       0.65517   0.57761   0.47184  -0.14189
C          C       0.70526   0.57708   0.49409  -0.13526
C          C       0.73682   0.63665   0.50841   0.12799
C          C       0.71605   0.69634   0.49944  -0.12606
C          C       0.66580   0.69611   0.47712  -0.14254
C          C       0.22512   0.59745   0.62243  -0.03621
C          C       0.27093   0.65300   0.62003  -0.09109
C          C       0.30933   0.65713   0.59563  -0.13420
C          C       0.30209   0.60598   0.57266   0.13952
C          C       0.25567   0.55036   0.57512  -0.13189
C          C       0.21818   0.54611   0.59985  -0.09038
C          C       0.51728   0.63162   0.46101   0.06549
C          C       0.49926   0.68827   0.47613  -0.14297
C          C       0.45317   0.68384   0.49766  -0.12482
C          C       0.42314   0.62178   0.50484   0.12230
C          C       0.44115   0.56486   0.48965  -0.12541
C          C       0.48787   0.57003   0.46847  -0.13539
C          C       0.57684   0.24573   0.25441  -0.04022
C          C       0.51538   0.26676   0.25978  -0.09044
C          C       0.50999   0.31395   0.28274  -0.13651
C          C       0.56627   0.34157   0.30093   0.14508
C          C       0.62802   0.32024   0.29536  -0.13363
C          C       0.63296   0.27274   0.27248  -0.08626
C          C       0.58931   0.98307   0.25750  -0.03276
C          C       0.64695   0.95882   0.26847  -0.09175
C          C       0.64634   0.92175   0.29335  -0.13573
C          C       0.58786   0.90850   0.30823   0.14291
C          C       0.53012   0.93339   0.29712  -0.13816
C          C       0.53088   0.96977   0.27201  -0.09140
C          C       0.57795   0.69683   0.42144   0.06329
C          C       0.63815   0.72245   0.41092  -0.13947
C          C       0.64090   0.76925   0.38974  -0.12573
C          C       0.58275   0.79212   0.37799   0.12522
C          C       0.52235   0.76748   0.38901  -0.12658
C          C       0.52030   0.72058   0.41020  -0.14258
C          C       0.56936   0.57910   0.41608   0.06298
C          C       0.62633   0.55752   0.40488  -0.13829
C          C       0.62258   0.50920   0.38159  -0.11413
C          C       0.56095   0.48086   0.36824   0.12382
C          C       0.50357   0.50378   0.37884  -0.12307
C          C       0.50811   0.55230   0.40219  -0.13914
C          C       0.57466   0.63643   0.44032   0.00795
C          C       0.01393   0.60631   0.64955   0.57993
C          C       0.18300   0.59379   0.64826   0.58097
C          C       0.58240   0.19514   0.22987   0.57884
C          C       0.59073   0.02423   0.23132   0.57979
C          C       0.78625   0.63562   0.53171  -0.10015
C          C       0.82722   0.63283   0.55240  -0.11035
C          C       0.37834   0.61622   0.52757  -0.09602
C          C       0.34183   0.61057   0.54803  -0.10608
C          C       0.58667   0.87029   0.33344  -0.11169
C          C       0.58482   0.83566   0.35468  -0.10039
C          C       0.55879   0.43147   0.34471  -0.09209
C          C       0.56146   0.38963   0.32436  -0.11115
C          C       0.61325   0.96428   0.12470  -0.03476
C          C       0.55720   0.92876   0.10942  -0.09074
C          C       0.56381   0.88393   0.08564  -0.14160
C          C       0.62694   0.87320   0.07657   0.14393
C          C       0.68312   0.90871   0.09224  -0.14087
C          C       0.67613   0.95371   0.11591  -0.08940
C          C       0.63697   0.63486   0.96268   0.06704
C          C       0.57760   0.65516   0.97184  -0.14170
C          C       0.57707   0.70526   0.99409  -0.13561
C          C       0.63665   0.73682   0.00841   0.12786
C          C       0.69633   0.71604  -0.00056  -0.12587
C          C       0.69610   0.66579   0.97712  -0.14276
C          C       0.59745   0.22513   0.12242  -0.03607
C          C       0.65300   0.27093   0.12003  -0.08871
C          C       0.65714   0.30933   0.09563  -0.13370
C          C       0.60598   0.30209   0.07266   0.13967
C          C       0.55037   0.25567   0.07512  -0.13185
C          C       0.54611   0.21818   0.09985  -0.09054
C          C       0.63161   0.51727   0.96101   0.06527
C          C       0.68826   0.49925   0.97613  -0.14315
C          C       0.68383   0.45317   0.99766  -0.12453
C          C       0.62178   0.42314   0.00484   0.12239
C          C       0.56485   0.44114   0.98965  -0.12535
C          C       0.57001   0.48785   0.96847  -0.13514
C          C       0.24573   0.57684   0.75441  -0.04032
C          C       0.26676   0.51538   0.75978  -0.09034
C          C       0.31395   0.50999   0.78274  -0.13661
C          C       0.34157   0.56627   0.80094   0.14522
C          C       0.32024   0.62802   0.79536  -0.13369
C          C       0.27274   0.63296   0.77249  -0.08621
C          C       0.98306   0.58931   0.75750  -0.03278
C          C       0.95882   0.64695   0.76847  -0.09194
C          C       0.92175   0.64634   0.79336  -0.13569
C          C       0.90850   0.58785   0.80823   0.14297
C          C       0.93339   0.53012   0.79712  -0.13823
C          C       0.96977   0.53088   0.77201  -0.09381
C          C       0.69682   0.57793   0.92144   0.06307
C          C       0.72244   0.63813   0.91092  -0.13928
C          C       0.76924   0.64090   0.88975  -0.12576
C          C       0.79212   0.58275   0.87799   0.12509
C          C       0.76748   0.52235   0.88901  -0.12513
C          C       0.72057   0.52029   0.91020  -0.14240
C          C       0.57909   0.56935   0.91608   0.06262
C          C       0.55751   0.62632   0.90488  -0.13825
C          C       0.50919   0.62257   0.88159  -0.11424
C          C       0.48086   0.56094   0.86824   0.12388
C          C       0.50377   0.50356   0.87884  -0.12324
C          C       0.55228   0.50810   0.90219  -0.13881
C          C       0.63642   0.57464   0.94032   0.00799
C          C       0.60631   0.01393   0.14955   0.57981
C          C       0.59379   0.18300   0.14826   0.58105
C          C       0.19514   0.58240   0.72988   0.57894
C          C       0.02423   0.59073   0.73132   0.57980
C          C       0.63562   0.78625   0.03170  -0.10008
C          C       0.63283   0.82722   0.05239  -0.11033
C          C       0.61622   0.37834   0.02757  -0.09596
C          C       0.61058   0.34184   0.04803  -0.10619
C          C       0.87029   0.58666   0.83344  -0.11180
C          C       0.83566   0.58482   0.85468  -0.10028
C          C       0.43146   0.55879   0.84470  -0.09199
C          C       0.38963   0.56146   0.82436  -0.11119
C          C       0.38674   0.03571   0.87530  -0.03457
C          C       0.44279   0.07123   0.89058  -0.09113
C          C       0.43618   0.11606   0.91436  -0.14171
C          C       0.37305   0.12679   0.92343   0.14381
C          C       0.31688   0.09129   0.90776  -0.14086
C          C       0.32386   0.04629   0.88409  -0.08927
C          C       0.36302   0.36514   0.03732   0.06698
C          C       0.42240   0.34483   0.02816  -0.14181
C          C       0.42293   0.29473   0.00591  -0.13575
C          C       0.36334   0.26318   0.99159   0.12782
C          C       0.30366   0.28396   0.00056  -0.12564
C          C       0.30389   0.33420   0.02288  -0.14263
C          C       0.40254   0.77487   0.87758  -0.03622
C          C       0.34699   0.72906   0.87997  -0.08858
C          C       0.34286   0.69066   0.90437  -0.13345
C          C       0.39401   0.69790   0.92734   0.13971
C          C       0.44963   0.74432   0.92488  -0.13199
C          C       0.45388   0.78181   0.90015  -0.09050
C          C       0.36839   0.48273   0.03899   0.06539
C          C       0.31174   0.50074   0.02387  -0.14312
C          C       0.31617   0.54682   0.00234  -0.12417
C          C       0.37822   0.57685   0.99516   0.12234
C          C       0.43514   0.55886   0.01035  -0.12563
C          C       0.42998   0.51214   0.03153  -0.13542
C          C       0.75426   0.42315   0.24559  -0.04037
C          C       0.73324   0.48461   0.24022  -0.09048
C          C       0.68605   0.49001   0.21726  -0.13654
C          C       0.65842   0.43372   0.19906   0.14510
C          C       0.67976   0.37197   0.20464  -0.13351
C          C       0.72726   0.36704   0.22751  -0.08633
C          C       0.01693   0.41069   0.24250  -0.03318
C          C       0.04117   0.35305   0.23153  -0.09165
C          C       0.07824   0.35365   0.20664  -0.13570
C          C       0.09149   0.41214   0.19177   0.14291
C          C       0.06661   0.46988   0.20288  -0.13814
C          C       0.03022   0.46912   0.22799  -0.09366
C          C       0.30317   0.42206   0.07856   0.06337
C          C       0.27755   0.36186   0.08908  -0.13951
C          C       0.23075   0.35910   0.11025  -0.12543
C          C       0.20788   0.41725   0.12201   0.12499
C          C       0.23251   0.47765   0.11099  -0.12655
C          C       0.27942   0.47970   0.08980  -0.14267
C          C       0.42091   0.43064   0.08392   0.06276
C          C       0.44248   0.37367   0.09512  -0.13831
C          C       0.49080   0.37742   0.11841  -0.11380
C          C       0.51914   0.43905   0.13176   0.12379
C          C       0.49622   0.49643   0.12116  -0.12310
C          C       0.44771   0.49189   0.09781  -0.13962
C          C       0.36358   0.42535   0.05968   0.00801
C          C       0.39368   0.98606   0.85045   0.57985
C          C       0.40620   0.81699   0.85174   0.58101
C          C       0.80486   0.41760   0.27012   0.57887
C          C       0.97577   0.40926   0.26868   0.58004
C          C       0.36437   0.21374   0.96830  -0.10016
C          C       0.36716   0.17277   0.94761  -0.11020
C          C       0.38377   0.62165   0.97243  -0.09596
C          C       0.38942   0.65815   0.95197  -0.10633
C          C       0.12970   0.41333   0.16656  -0.11182
C          C       0.16433   0.41518   0.14532  -0.10016
C          C       0.56853   0.44121   0.15530  -0.09209
C          C       0.61036   0.43854   0.17564  -0.11112
C          C       0.03571   0.38675   0.37530  -0.03464
C          C       0.07123   0.44280   0.39058  -0.09088
C          C       0.11607   0.43618   0.41436  -0.14166
C          C       0.12680   0.37306   0.42343   0.14376
C          C       0.09129   0.31688   0.40776  -0.14069
C          C       0.04629   0.32387   0.38409  -0.08952
C          C       0.36512   0.36301   0.53732   0.06663
C          C       0.34483   0.42239   0.52816  -0.14179
C          C       0.29473   0.42292   0.50591  -0.13523
C          C       0.26318   0.36334   0.49159   0.12785
C          C       0.28395   0.30366   0.50056  -0.12585
C          C       0.33419   0.30388   0.52288  -0.14212
C          C       0.77487   0.40255   0.37757  -0.03633
C          C       0.72906   0.34699   0.37997  -0.09120
C          C       0.69067   0.34286   0.40437  -0.13383
C          C       0.69791   0.39402   0.42734   0.13977
C          C       0.74432   0.44963   0.42488  -0.13214
C          C       0.78181   0.45389   0.40015  -0.09063
C          C       0.48271   0.36837   0.53899   0.06500
C          C       0.50073   0.31172   0.52387  -0.14263
C          C       0.54682   0.31616   0.50234  -0.12456
C          C       0.57685   0.37822   0.49516   0.12224
C          C       0.55885   0.43513   0.51035  -0.12547
C          C       0.51213   0.42997   0.53153  -0.13541
C          C       0.42315   0.75426   0.74559  -0.04050
C          C       0.48461   0.73323   0.74022  -0.09046
C          C       0.49001   0.68604   0.71726  -0.13651
C          C       0.43372   0.65842   0.69907   0.14514
C          C       0.37197   0.67976   0.70464  -0.13347
C          C       0.36703   0.72726   0.72752  -0.08622
C          C       0.41068   0.01693   0.74250  -0.03299
C          C       0.35304   0.04117   0.73153  -0.09171
C          C       0.35365   0.07824   0.70665  -0.13563
C          C       0.41214   0.09149   0.69177   0.14263
C          C       0.46987   0.06661   0.70288  -0.14005
C          C       0.46911   0.03022   0.72799  -0.09142
C          C       0.42205   0.30316   0.57856   0.06292
C          C       0.36185   0.27754   0.58908  -0.13906
C          C       0.35909   0.23075   0.61026  -0.12676
C          C       0.41724   0.20788   0.62201   0.12505
C          C       0.47764   0.23251   0.61099  -0.12633
C          C       0.47969   0.27942   0.58980  -0.14248
C          C       0.43063   0.42089   0.58392   0.06286
C          C       0.37366   0.44248   0.59512  -0.13849
C          C       0.37742   0.49080   0.61841  -0.11360
C          C       0.43905   0.51913   0.63176   0.12379
C          C       0.49642   0.49621   0.62116  -0.12345
C          C       0.49188   0.44770   0.59781  -0.13907
C          C       0.42534   0.36356   0.55968   0.00810
C          C       0.98606   0.39368   0.35045   0.58013
C          C       0.81699   0.40620   0.35174   0.58105
C          C       0.41760   0.80485   0.77013   0.57882
C          C       0.40926   0.97576   0.76868   0.57981
C          C       0.21374   0.36438   0.46829  -0.10018
C          C       0.17277   0.36717   0.44760  -0.11018
C          C       0.62165   0.38377   0.47243  -0.09585
C          C       0.65816   0.38942   0.45197  -0.10637
C          C       0.41333   0.12971   0.66656  -0.11162
C          C       0.41517   0.16433   0.64532  -0.10039
C          C       0.44120   0.56853   0.65529  -0.09223
C          C       0.43854   0.61036   0.67564  -0.11113
O          O       0.01901   0.54823   0.65788  -0.54437
O          O       0.04860   0.65928   0.66062  -0.54193
O          O       0.18256   0.64674   0.66496  -0.55111
O          O       0.14967   0.53827   0.65171  -0.53938
O          O       0.52967   0.17184   0.21409  -0.54417
O          O       0.64012   0.17831   0.22627  -0.54510
O          O       0.53535   0.03885   0.22031  -0.54373
O          O       0.64721   0.04278   0.22186  -0.54389
O          O       0.54823   0.01901   0.15788  -0.54450
O          O       0.65928   0.04860   0.16062  -0.54182
O          O       0.64675   0.18257   0.16496  -0.55063
O          O       0.53827   0.14967   0.15171  -0.53961
O          O       0.17184   0.52967   0.71409  -0.54406
O          O       0.17831   0.64012   0.72627  -0.54528
O          O       0.03884   0.53535   0.72031  -0.54387
O          O       0.04278   0.64721   0.72186  -0.54404
O          O       0.45176   0.98098   0.84212  -0.54512
O          O       0.34071   0.95139   0.83938  -0.54135
O          O       0.35325   0.81743   0.83504  -0.55008
O          O       0.46172   0.85032   0.84829  -0.54007
O          O       0.82815   0.47032   0.28591  -0.54440
O          O       0.82169   0.35987   0.27373  -0.54478
O          O       0.96115   0.46465   0.27969  -0.54432
O          O       0.95722   0.35279   0.27814  -0.54372
O          O       0.98098   0.45176   0.34212  -0.54499
O          O       0.95139   0.34071   0.33938  -0.54164
O          O       0.81743   0.35325   0.33504  -0.55060
O          O       0.85032   0.46172   0.34829  -0.53989
O          O       0.47032   0.82815   0.78591  -0.54446
O          O       0.35987   0.82168   0.77373  -0.54462
O          O       0.46464   0.96114   0.77969  -0.54420
O          O       0.35278   0.95721   0.77814  -0.54349

