data_crystal

_audit_creation_method 'AiiDA-DDEC plugin'

_cell_length_a        15.88091
_cell_length_b        30.12095
_cell_length_c        32.26398

_cell_angle_alpha     89.99442
_cell_angle_beta     90.00947
_cell_angle_gamma     105.54456

_symmetry_space_group_name_Hall 'P 1'
_symmetry_space_group_name_H-M  'P 1'

loop_
_symmetry_equiv_pos_as_xyz
 'x,y,z'

loop_
_atom_site_label
_atom_site_type_symbol
_atom_site_fract_x
_atom_site_fract_y
_atom_site_fract_z
_atom_site_charge
Gd         Gd      0.92328   0.26647   0.72675   1.99168
Gd         Gd      0.57671   0.73509   0.72559   1.98531
Gd         Gd      0.34031   0.26525   0.77368   1.99085
Gd         Gd      0.15961   0.73532   0.77398   1.98322
Gd         Gd      0.07711   0.73520   0.27342   1.99388
Gd         Gd      0.42240   0.26469   0.27390   1.98407
Gd         Gd      0.65983   0.73547   0.22635   1.99100
Gd         Gd      0.84020   0.26452   0.22616   1.98117
Gd         Gd      0.10204   0.20589   0.74964   2.03945
Gd         Gd      0.39768   0.79382   0.74982   2.03675
Gd         Gd      0.89837   0.79526   0.24971   2.04152
Gd         Gd      0.60167   0.20485   0.24942   2.04122
H          H       0.20625   0.46617   0.56933   0.11350
H          H       0.24448   0.34555   0.51010   0.10869
H          H       0.28629   0.47234   0.44166   0.11337
H          H       0.09860   0.40985   0.59977   0.11322
H          H       0.05852   0.36572   0.66520   0.11428
H          H       0.25047   0.29191   0.64037   0.11966
H          H       0.29290   0.33698   0.57547   0.11287
H          H       0.19934   0.31573   0.45136   0.11095
H          H       0.23320   0.27437   0.38947   0.12278
H          H       0.40271   0.40050   0.34340   0.12363
H          H       0.37438   0.44187   0.40648   0.11241
H          H       0.23313   0.03666   0.58467   0.11394
H          H       0.35814   0.15881   0.51535   0.10876
H          H       0.31299   0.02551   0.45855   0.11259
H          H       0.41991   0.17766   0.57796   0.10907
H          H       0.42025   0.22588   0.64020   0.11975
H          H       0.16757   0.13873   0.67486   0.10692
H          H       0.16708   0.09115   0.61259   0.10729
H          H       0.44713   0.06541   0.42942   0.11431
H          H       0.50645   0.10111   0.36217   0.11766
H          H       0.37669   0.20791   0.38056   0.12360
H          H       0.31706   0.17230   0.44759   0.11359
H          H       0.29297   0.53442   0.56923   0.11404
H          H       0.25556   0.65480   0.50910   0.11037
H          H       0.21477   0.52763   0.44131   0.11341
H          H       0.40092   0.59042   0.59937   0.11306
H          H       0.44096   0.63425   0.66496   0.11614
H          H       0.24897   0.70804   0.64046   0.12007
H          H       0.20676   0.66342   0.57533   0.11294
H          H       0.29999   0.68407   0.44928   0.11159
H          H       0.26547   0.72412   0.38677   0.12366
H          H       0.09410   0.59732   0.34315   0.12436
H          H       0.12359   0.55729   0.40675   0.11189
H          H       0.26607   0.96322   0.58480   0.11449
H          H       0.14155   0.84095   0.51554   0.10830
H          H       0.18693   0.97413   0.45850   0.11285
H          H       0.08012   0.82191   0.57797   0.10952
H          H       0.08060   0.77360   0.64020   0.11992
H          H       0.33237   0.86132   0.67500   0.10797
H          H       0.33250   0.90910   0.61277   0.10823
H          H       0.05253   0.93416   0.42962   0.11681
H          H       0.99346   0.89871   0.36224   0.11780
H          H       0.12407   0.79221   0.38022   0.12275
H          H       0.18375   0.82767   0.44731   0.11371
H          H       0.25917   0.46593   0.93013   0.11410
H          H       0.10146   0.34488   0.99009   0.10953
H          H       0.18728   0.47208   0.05805   0.11052
H          H       0.31086   0.40967   0.89960   0.11007
H          H       0.30641   0.36499   0.83450   0.11565
H          H       0.03990   0.29082   0.85979   0.11955
H          H       0.04305   0.33626   0.92443   0.11295
H          H       0.11747   0.31570   0.04981   0.11128
H          H       0.04131   0.27460   0.11166   0.12614
H          H       0.99587   0.40043   0.15610   0.12370
H          H       0.06617   0.44139   0.09291   0.11223
H          H       0.80292   0.03658   0.91583   0.11393
H          H       0.80030   0.15862   0.98493   0.11104
H          H       0.71293   0.02537   0.04214   0.11247
H          H       0.75744   0.17736   0.92244   0.10912
H          H       0.80490   0.22546   0.86000   0.11986
H          H       0.96925   0.13868   0.82481   0.10912
H          H       0.92249   0.09112   0.88722   0.10931
H          H       0.61820   0.06439   0.07076   0.11619
H          H       0.59356   0.09966   0.13803   0.11780
H          H       0.83011   0.20779   0.12014   0.12443
H          H       0.85539   0.17249   0.05323   0.11446
H          H       0.24119   0.53424   0.93036   0.11409
H          H       0.39849   0.65516   0.99066   0.10903
H          H       0.31445   0.52748   0.05804   0.11326
H          H       0.18910   0.59045   0.90010   0.11057
H          H       0.19345   0.63474   0.83478   0.11493
H          H       0.46000   0.70903   0.85985   0.11966
H          H       0.45693   0.66408   0.92472   0.11284
H          H       0.38237   0.68390   0.05026   0.11184
H          H       0.45810   0.72491   0.11230   0.12297
H          H       0.50397   0.59915   0.15662   0.12380
H          H       0.43432   0.55832   0.09325   0.11245
H          H       0.69757   0.96306   0.91581   0.11356
H          H       0.69969   0.84100   0.98500   0.10839
H          H       0.78748   0.97427   0.04214   0.11020
H          H       0.74438   0.82293   0.92194   0.10979
H          H       0.69769   0.77510   0.85922   0.11987
H          H       0.53078   0.86080   0.82485   0.10897
H          H       0.57706   0.90824   0.88736   0.10944
H          H       0.88265   0.93509   0.07085   0.11532
H          H       0.90728   0.89966   0.13799   0.11817
H          H       0.66949   0.79224   0.12056   0.11970
H          H       0.64409   0.82765   0.05366   0.11420
H          H       0.79407   0.53439   0.42996   0.11077
H          H       0.75554   0.65466   0.48977   0.10929
H          H       0.71457   0.52759   0.55773   0.11295
H          H       0.90192   0.59115   0.39965   0.11256
H          H       0.94228   0.63572   0.33452   0.11564
H          H       0.74917   0.70876   0.35944   0.12358
H          H       0.70645   0.66320   0.42406   0.11290
H          H       0.80073   0.68427   0.54875   0.11138
H          H       0.76613   0.72537   0.61061   0.12614
H          H       0.59643   0.59909   0.65617   0.12664
H          H       0.62576   0.55788   0.59323   0.11247
H          H       0.76676   0.96349   0.41579   0.11140
H          H       0.64178   0.84117   0.48491   0.11068
H          H       0.68760   0.97433   0.54207   0.10941
H          H       0.58029   0.82229   0.42212   0.10835
H          H       0.58038   0.77419   0.35979   0.11958
H          H       0.83256   0.86170   0.32517   0.10708
H          H       0.83298   0.90931   0.38748   0.10734
H          H       0.55336   0.93472   0.57088   0.11473
H          H       0.49309   0.89902   0.63798   0.11783
H          H       0.62174   0.79172   0.61985   0.12268
H          H       0.68264   0.82744   0.55306   0.11325
H          H       0.70797   0.46569   0.42989   0.11403
H          H       0.74389   0.34520   0.49042   0.10951
H          H       0.78572   0.47261   0.55791   0.11313
H          H       0.59920   0.40956   0.39990   0.11037
H          H       0.55792   0.36509   0.33474   0.11590
H          H       0.74911   0.29082   0.35942   0.11907
H          H       0.79281   0.33615   0.42407   0.11314
H          H       0.69905   0.31619   0.55028   0.11144
H          H       0.73344   0.27598   0.61283   0.12334
H          H       0.90506   0.40270   0.65649   0.12652
H          H       0.87607   0.44278   0.59286   0.11221
H          H       0.73387   0.03631   0.41557   0.11407
H          H       0.85804   0.15906   0.48424   0.10885
H          H       0.81311   0.02626   0.54196   0.11241
H          H       0.92004   0.17731   0.42166   0.10956
H          H       0.91962   0.22566   0.35945   0.12009
H          H       0.66695   0.13842   0.32507   0.10707
H          H       0.66692   0.09069   0.38726   0.10779
H          H       0.94648   0.06617   0.57092   0.11848
H          H       0.00516   0.10215   0.63824   0.11828
H          H       0.87408   0.20823   0.61958   0.12424
H          H       0.81506   0.17255   0.55228   0.11384
H          H       0.74213   0.53424   0.07056   0.11424
H          H       0.89862   0.65535   0.01024   0.10878
H          H       0.81338   0.52792   0.94257   0.11012
H          H       0.68944   0.59078   0.10039   0.11081
H          H       0.69349   0.63552   0.16547   0.11433
H          H       0.96031   0.70945   0.14058   0.11964
H          H       0.95754   0.66387   0.07603   0.11413
H          H       0.88212   0.68437   0.95068   0.11138
H          H       0.95822   0.72558   0.88880   0.12294
H          H       0.00413   0.59988   0.84436   0.12383
H          H       0.93383   0.55878   0.90753   0.11252
H          H       0.19664   0.96350   0.08352   0.11392
H          H       0.19959   0.84143   0.01453   0.11087
H          H       0.28773   0.97470   0.95739   0.11172
H          H       0.24310   0.82315   0.07716   0.10949
H          H       0.19679   0.77541   0.13995   0.11980
H          H       0.03074   0.86138   0.17478   0.10615
H          H       0.07650   0.90876   0.11218   0.10867
H          H       0.38252   0.93558   0.92875   0.11770
H          H       0.40830   0.89998   0.86191   0.11683
H          H       0.17102   0.79216   0.87937   0.12358
H          H       0.14506   0.82770   0.94601   0.11250
H          H       0.75998   0.46567   0.07037   0.11138
H          H       0.60182   0.34509   0.00985   0.10954
H          H       0.68672   0.47287   0.94275   0.11297
H          H       0.81136   0.40932   0.10060   0.11065
H          H       0.80659   0.36476   0.16576   0.11399
H          H       0.54007   0.29065   0.14031   0.11970
H          H       0.54344   0.33601   0.07561   0.11310
H          H       0.61831   0.31671   0.94966   0.11205
H          H       0.54143   0.27627   0.88753   0.12268
H          H       0.49437   0.40244   0.84504   0.12341
H          H       0.56567   0.44266   0.90839   0.11301
H          H       0.30291   0.03686   0.08372   0.11364
H          H       0.30039   0.15903   0.01482   0.11155
H          H       0.21295   0.02590   0.95741   0.11295
H          H       0.25608   0.17714   0.07750   0.10984
H          H       0.30375   0.22538   0.13998   0.11957
H          H       0.46935   0.13912   0.17481   0.10672
H          H       0.42276   0.09149   0.11242   0.10998
H          H       0.11759   0.06523   0.92895   0.11686
H          H       0.09269   0.10077   0.86187   0.11802
H          H       0.33058   0.20808   0.87932   0.12404
H          H       0.35612   0.17252   0.94607   0.11412
C          C       0.24813   0.47525   0.50553   0.07587
C          C       0.22399   0.44957   0.54200  -0.18665
C          C       0.22296   0.40292   0.54416   0.07087
C          C       0.24485   0.38166   0.50861  -0.18295
C          C       0.26627   0.40590   0.47121   0.06876
C          C       0.26854   0.45291   0.47024  -0.18849
C          C       0.19900   0.37674   0.58304   0.07504
C          C       0.13335   0.38484   0.60904  -0.14544
C          C       0.11027   0.36003   0.64552  -0.08539
C          C       0.15227   0.32625   0.65697  -0.06374
C          C       0.21827   0.31807   0.63133  -0.07596
C          C       0.24108   0.34303   0.59491  -0.14395
C          C       0.12348   0.29763   0.69395   0.63261
C          C       0.28500   0.38182   0.43377   0.07947
C          C       0.24545   0.33433   0.42830  -0.14279
C          C       0.26325   0.31105   0.39355  -0.08710
C          C       0.32023   0.33491   0.36282  -0.04286
C          C       0.35880   0.38239   0.36748  -0.08538
C          C       0.34195   0.40539   0.40263  -0.14438
C          C       0.34227   0.31011   0.32654   0.56029
C          C       0.26803   0.02528   0.52162   0.07609
C          C       0.26291   0.05279   0.55613  -0.19276
C          C       0.29634   0.10113   0.55450   0.07059
C          C       0.33369   0.12150   0.51723  -0.18752
C          C       0.34006   0.09469   0.48248   0.06707
C          C       0.30802   0.04663   0.48528  -0.19783
C          C       0.29395   0.13030   0.59088   0.06793
C          C       0.36416   0.16950   0.59885  -0.14865
C          C       0.36502   0.19649   0.63367  -0.09277
C          C       0.29497   0.18544   0.66227  -0.06699
C          C       0.22332   0.14699   0.65399  -0.08888
C          C       0.22324   0.12014   0.61902  -0.14744
C          C       0.30066   0.21249   0.69979   0.58449
C          C       0.37787   0.11637   0.44323   0.08389
C          C       0.43116   0.09637   0.41852  -0.14415
C          C       0.46474   0.11630   0.38105  -0.08489
C          C       0.44556   0.15675   0.36710  -0.06539
C          C       0.39245   0.17697   0.39163  -0.08131
C          C       0.35952   0.15707   0.42917  -0.14323
C          C       0.48081   0.17835   0.32743   0.64786
C          C       0.25208   0.52501   0.50535   0.07578
C          C       0.27577   0.55091   0.54171  -0.18755
C          C       0.27694   0.59760   0.54361   0.07311
C          C       0.25520   0.61867   0.50786  -0.18609
C          C       0.23379   0.59413   0.47057   0.06944
C          C       0.23199   0.54716   0.46986  -0.18800
C          C       0.30085   0.62374   0.58257   0.07408
C          C       0.36638   0.61551   0.60861  -0.14422
C          C       0.38940   0.64010   0.64522  -0.08797
C          C       0.34737   0.67378   0.65683  -0.06078
C          C       0.28142   0.68206   0.63121  -0.07792
C          C       0.25874   0.65735   0.59464  -0.14451
C          C       0.37595   0.70224   0.69399   0.63441
C          C       0.21418   0.61764   0.43289   0.07852
C          C       0.25358   0.66500   0.42659  -0.14343
C          C       0.23534   0.68755   0.39147  -0.08642
C          C       0.17777   0.66316   0.36117  -0.04227
C          C       0.13877   0.61588   0.36677  -0.08806
C          C       0.15630   0.59361   0.40226  -0.14262
C          C       0.15568   0.68766   0.32471   0.56105
C          C       0.23141   0.97451   0.52166   0.07715
C          C       0.23644   0.94706   0.55623  -0.19094
C          C       0.20310   0.89874   0.55463   0.06780
C          C       0.16597   0.87826   0.51737  -0.18553
C          C       0.15982   0.90499   0.48254   0.06701
C          C       0.19172   0.95306   0.48530  -0.19690
C          C       0.20582   0.86954   0.59097   0.07032
C          C       0.13596   0.83015   0.59883  -0.14831
C          C       0.13545   0.80317   0.63363  -0.09129
C          C       0.20541   0.81447   0.66223  -0.06433
C          C       0.27678   0.85301   0.65402  -0.08941
C          C       0.27663   0.87989   0.61907  -0.14529
C          C       0.19950   0.78757   0.69993   0.58735
C          C       0.12208   0.88330   0.44328   0.08271
C          C       0.06861   0.90327   0.41864  -0.14511
C          C       0.03522   0.88350   0.38109  -0.08387
C          C       0.05479   0.84321   0.36704  -0.06612
C          C       0.10811   0.82303   0.39145  -0.08131
C          C       0.14090   0.84279   0.42905  -0.14290
C          C       0.01960   0.82166   0.32742   0.64683
C          C       0.22757   0.47500   0.99406   0.07580
C          C       0.22542   0.44925   0.95762  -0.18630
C          C       0.17989   0.40242   0.95568   0.07144
C          C       0.13714   0.38111   0.99143  -0.18429
C          C       0.14012   0.40550   0.02878   0.06725
C          C       0.18520   0.45260   0.02951  -0.18579
C          C       0.17723   0.37618   0.91678   0.07476
C          C       0.25091   0.38432   0.89061  -0.14252
C          C       0.24894   0.35928   0.85425  -0.08498
C          C       0.17274   0.32528   0.84300  -0.06270
C          C       0.09858   0.31712   0.86873  -0.07689
C          C       0.10106   0.34225   0.90505  -0.14488
C          C       0.17187   0.29639   0.80612   0.63552
C          C       0.09695   0.38161   0.06639   0.08023
C          C       0.08934   0.33430   0.07247  -0.14326
C          C       0.04775   0.31117   0.10726  -0.09061
C          C       0.01386   0.33500   0.13761  -0.04214
C          C       0.02243   0.38231   0.13241  -0.08712
C          C       0.06266   0.40511   0.09715  -0.14328
C          C       0.96688   0.31022   0.17398   0.55937
C          C       0.75722   0.02517   0.97896   0.07415
C          C       0.78946   0.05272   0.94435  -0.19164
C          C       0.80423   0.10102   0.94583   0.06965
C          C       0.78755   0.12133   0.98312  -0.18876
C          C       0.75482   0.09450   0.01799   0.06648
C          C       0.73886   0.04646   0.01531  -0.19654
C          C       0.83551   0.13018   0.90931   0.06888
C          C       0.80467   0.16925   0.90138  -0.14961
C          C       0.83057   0.19615   0.86642  -0.09258
C          C       0.88920   0.18523   0.83766  -0.06584
C          C       0.92207   0.14686   0.84584  -0.08995
C          C       0.89552   0.12005   0.88092  -0.15024
C          C       0.91043   0.21236   0.80006   0.58797
C          C       0.73847   0.11605   0.05721   0.08471
C          C       0.66486   0.09557   0.08176  -0.14703
C          C       0.65058   0.11523   0.11919  -0.08247
C          C       0.70987   0.15593   0.13322  -0.06771
C          C       0.78359   0.17666   0.10893  -0.08064
C          C       0.79730   0.15696   0.07144  -0.14549
C          C       0.69514   0.17719   0.17275   0.64579
C          C       0.27347   0.52489   0.99415   0.07465
C          C       0.27514   0.55082   0.95786  -0.18703
C          C       0.32039   0.59769   0.95603   0.07247
C          C       0.36320   0.61886   0.99183  -0.18406
C          C       0.36060   0.59429   0.02905   0.06778
C          C       0.31610   0.54712   0.02961  -0.18777
C          C       0.32277   0.62397   0.91716   0.07454
C          C       0.24904   0.61574   0.89099  -0.14432
C          C       0.25098   0.64061   0.85451  -0.08568
C          C       0.32717   0.67454   0.84308  -0.06173
C          C       0.40130   0.68280   0.86887  -0.07833
C          C       0.39888   0.65788   0.90532  -0.14500
C          C       0.32797   0.70340   0.80616   0.63443
C          C       0.40336   0.61808   0.06678   0.08040
C          C       0.41062   0.66533   0.07291  -0.14408
C          C       0.45200   0.68841   0.10775  -0.08678
C          C       0.48597   0.66461   0.13810  -0.04163
C          C       0.47766   0.61733   0.13288  -0.08669
C          C       0.43768   0.59458   0.09754  -0.14431
C          C       0.53312   0.68963   0.17431   0.55950
C          C       0.74321   0.97445   0.97896   0.07794
C          C       0.71092   0.94691   0.94435  -0.19120
C          C       0.69611   0.89862   0.94586   0.07073
C          C       0.71261   0.87828   0.98318  -0.18722
C          C       0.74545   0.90513   0.01805   0.06776
C          C       0.76153   0.95316   0.01532  -0.19402
C          C       0.66502   0.86954   0.90923   0.07063
C          C       0.69671   0.83083   0.90099  -0.14904
C          C       0.67136   0.80415   0.86583  -0.09034
C          C       0.61238   0.81501   0.83722  -0.06471
C          C       0.57838   0.85286   0.84579  -0.08876
C          C       0.60454   0.87950   0.88101  -0.14768
C          C       0.59182   0.78855   0.79918   0.59040
C          C       0.76182   0.88365   0.05734   0.08406
C          C       0.83571   0.90398   0.08180  -0.14469
C          C       0.85001   0.88427   0.11922  -0.08281
C          C       0.79041   0.84368   0.13328  -0.06539
C          C       0.71623   0.82321   0.10919  -0.07671
C          C       0.70253   0.84296   0.07172  -0.14486
C          C       0.80509   0.82227   0.17272   0.64364
C          C       0.75249   0.52496   0.49377   0.07508
C          C       0.77642   0.55085   0.45739  -0.18318
C          C       0.77731   0.59752   0.45542   0.07198
C          C       0.75540   0.61856   0.49112  -0.18430
C          C       0.73418   0.59413   0.52846   0.06901
C          C       0.73214   0.54713   0.52920  -0.18782
C          C       0.80115   0.62391   0.41657   0.07523
C          C       0.86710   0.61618   0.39053  -0.14416
C          C       0.89029   0.64126   0.35416  -0.08653
C          C       0.84798   0.67496   0.34284  -0.06126
C          C       0.78166   0.68271   0.36847  -0.07920
C          C       0.75873   0.65749   0.40475  -0.14548
C          C       0.87639   0.70400   0.30597   0.63562
C          C       0.71527   0.61800   0.56606   0.07886
C          C       0.75454   0.66551   0.57168  -0.14286
C          C       0.73629   0.68869   0.60638  -0.08955
C          C       0.67911   0.66478   0.63700  -0.04313
C          C       0.64067   0.61728   0.63223  -0.08822
C          C       0.65809   0.59435   0.59712  -0.14438
C          C       0.65739   0.68967   0.67327   0.56222
C          C       0.73216   0.97465   0.47889   0.07654
C          C       0.73707   0.94723   0.44430  -0.18987
C          C       0.70370   0.89889   0.44583   0.06903
C          C       0.66640   0.87847   0.48311  -0.18782
C          C       0.66028   0.90520   0.51797   0.06614
C          C       0.69252   0.95326   0.51529  -0.19545
C          C       0.70622   0.86981   0.40937   0.06858
C          C       0.63615   0.83054   0.40128  -0.14890
C          C       0.63547   0.80365   0.36639  -0.09316
C          C       0.70552   0.81487   0.33778  -0.06581
C          C       0.77694   0.85341   0.34613  -0.08982
C          C       0.77691   0.88020   0.38116  -0.14653
C          C       0.69978   0.78787   0.30019   0.58527
C          C       0.62216   0.88350   0.55717   0.08350
C          C       0.56888   0.90364   0.58176  -0.14442
C          C       0.53478   0.88376   0.61915  -0.08467
C          C       0.55342   0.84319   0.63310  -0.06503
C          C       0.60645   0.82278   0.60874  -0.08261
C          C       0.64001   0.84270   0.57131  -0.14155
C          C       0.51742   0.82168   0.67259   0.64560
C          C       0.74859   0.47517   0.49383   0.07543
C          C       0.72492   0.44920   0.45747  -0.18631
C          C       0.72333   0.40243   0.45568   0.07243
C          C       0.74463   0.38139   0.49156  -0.18474
C          C       0.76614   0.40600   0.52883   0.06989
C          C       0.76842   0.45302   0.52939  -0.18866
C          C       0.69904   0.37606   0.41681   0.07501
C          C       0.63340   0.38425   0.39080  -0.14339
C          C       0.60969   0.35933   0.35440  -0.08588
C          C       0.65110   0.32531   0.34295  -0.06071
C          C       0.71717   0.31708   0.36851  -0.07585
C          C       0.74063   0.34217   0.40486  -0.14626
C          C       0.62161   0.29664   0.30596   0.63324
C          C       0.78535   0.38250   0.56663   0.07872
C          C       0.74559   0.33517   0.57298  -0.14259
C          C       0.76357   0.31256   0.60813  -0.08770
C          C       0.82100   0.33687   0.63852  -0.04295
C          C       0.86026   0.38416   0.63291  -0.08857
C          C       0.84315   0.40647   0.59735  -0.14388
C          C       0.84248   0.31243   0.67520   0.55982
C          C       0.76859   0.02542   0.47874   0.07655
C          C       0.76342   0.05270   0.44405  -0.18972
C          C       0.79659   0.10103   0.44542   0.06831
C          C       0.83370   0.12173   0.48259  -0.18681
C          C       0.83985   0.09516   0.51754   0.06667
C          C       0.80817   0.04708   0.51501  -0.19517
C          C       0.79396   0.13001   0.40889   0.07095
C          C       0.86410   0.16921   0.40086  -0.14821
C          C       0.86452   0.19625   0.36610  -0.09041
C          C       0.79424   0.18516   0.33766  -0.06540
C          C       0.72275   0.14668   0.34593  -0.08735
C          C       0.72300   0.11976   0.38086  -0.14691
C          C       0.80013   0.21229   0.30010   0.58876
C          C       0.87705   0.11700   0.55679   0.08454
C          C       0.93029   0.09712   0.58168  -0.14857
C          C       0.96349   0.11717   0.61914  -0.08277
C          C       0.94365   0.15755   0.63276  -0.06630
C          C       0.89012   0.17745   0.60829  -0.08206
C          C       0.85774   0.15750   0.57072  -0.14321
C          C       0.97917   0.17964   0.67206   0.65104
C          C       0.77361   0.52510   0.00663   0.07641
C          C       0.77567   0.55091   0.04301  -0.18801
C          C       0.82082   0.59778   0.04478   0.07123
C          C       0.86322   0.61908   0.00897  -0.18280
C          C       0.86017   0.59462   0.97168   0.06770
C          C       0.81557   0.54747   0.97108  -0.18556
C          C       0.82325   0.62413   0.08355   0.07664
C          C       0.74931   0.61609   0.10952  -0.14433
C          C       0.75109   0.64116   0.14583  -0.08597
C          C       0.82734   0.67506   0.15716  -0.06204
C          C       0.90168   0.68317   0.13158  -0.07613
C          C       0.89942   0.65799   0.09533  -0.14611
C          C       0.82803   0.70393   0.19401   0.63587
C          C       0.90295   0.61853   0.93403   0.08017
C          C       0.91030   0.66582   0.92799  -0.14373
C          C       0.95185   0.68902   0.89322  -0.08687
C          C       0.98596   0.66524   0.86294  -0.04304
C          C       0.97746   0.61792   0.86806  -0.08565
C          C       0.93724   0.59505   0.90328  -0.14458
C          C       0.03331   0.68990   0.82665   0.56181
C          C       0.24295   0.97486   0.02048   0.07566
C          C       0.21029   0.94735   0.05504  -0.19205
C          C       0.19547   0.89906   0.05357   0.06946
C          C       0.21231   0.87872   0.01630  -0.18827
C          C       0.24546   0.90553   0.98146   0.06615
C          C       0.26156   0.95357   0.98416  -0.19643
C          C       0.16428   0.87000   0.09015   0.06782
C          C       0.19575   0.83116   0.09824  -0.14874
C          C       0.17051   0.80447   0.13337  -0.09226
C          C       0.11175   0.81537   0.16211  -0.06563
C          C       0.07802   0.85336   0.15370  -0.09092
C          C       0.10407   0.88004   0.11850  -0.14754
C          C       0.09128   0.78856   0.19989   0.58588
C          C       0.26220   0.88398   0.94227   0.08364
C          C       0.33603   0.90433   0.91781  -0.14814
C          C       0.35087   0.88448   0.88054  -0.08140
C          C       0.29166   0.84371   0.86654  -0.06653
C          C       0.21750   0.82326   0.89063  -0.08167
C          C       0.20342   0.84311   0.92797  -0.14218
C          C       0.30628   0.82190   0.82726   0.64524
C          C       0.72778   0.47524   0.00661   0.07510
C          C       0.72596   0.44920   0.04285  -0.18381
C          C       0.68033   0.40238   0.04458   0.07175
C          C       0.63745   0.38134   0.00876  -0.18518
C          C       0.64022   0.40606   0.97163   0.06844
C          C       0.68504   0.45316   0.97113  -0.18847
C          C       0.67765   0.37594   0.08336   0.07494
C          C       0.75131   0.38404   0.10958  -0.14434
C          C       0.74918   0.35902   0.14595  -0.08635
C          C       0.67288   0.32506   0.15718  -0.05980
C          C       0.59880   0.31692   0.13138  -0.07836
C          C       0.60142   0.34202   0.09504  -0.14538
C          C       0.67200   0.29614   0.19398   0.63257
C          C       0.59692   0.38259   0.93393   0.08007
C          C       0.58963   0.33544   0.92733  -0.14423
C          C       0.54763   0.31273   0.89247  -0.08547
C          C       0.51287   0.33686   0.86270  -0.04228
C          C       0.52132   0.38407   0.86838  -0.08535
C          C       0.56213   0.40645   0.90367  -0.14507
C          C       0.46500   0.31231   0.82650   0.56103
C          C       0.25716   0.02558   0.02057   0.07781
C          C       0.28947   0.05305   0.05522  -0.19166
C          C       0.30420   0.10133   0.05378   0.07183
C          C       0.28763   0.12175   0.01651  -0.19052
C          C       0.25482   0.09498   0.98161   0.06784
C          C       0.23885   0.04696   0.98426  -0.19701
C          C       0.33521   0.13040   0.09042   0.06864
C          C       0.30378   0.16925   0.09848  -0.14874
C          C       0.32975   0.19620   0.13345  -0.09051
C          C       0.38877   0.18540   0.16210  -0.06450
C          C       0.42194   0.14718   0.15382  -0.09027
C          C       0.39549   0.12034   0.11872  -0.14669
C          C       0.41005   0.21240   0.19984   0.58897
C          C       0.23845   0.11654   0.94237   0.08404
C          C       0.16451   0.09629   0.91794  -0.14611
C          C       0.15009   0.11609   0.88057  -0.08370
C          C       0.20964   0.15668   0.86652  -0.06535
C          C       0.28389   0.17705   0.89059  -0.08062
C          C       0.29771   0.15722   0.92800  -0.14374
C          C       0.19495   0.17834   0.82715   0.64749
O          O       0.15775   0.26486   0.70214  -0.67049
O          O       0.06176   0.30561   0.71668  -0.70457
O          O       0.31623   0.26562   0.32483  -0.64930
O          O       0.39153   0.33277   0.29767  -0.63855
O          O       0.24168   0.20098   0.72939  -0.78322
O          O       0.36687   0.24789   0.70643  -0.66131
O          O       0.46271   0.21612   0.31702  -0.72432
O          O       0.52903   0.16052   0.30448  -0.64720
O          O       0.34130   0.73486   0.70221  -0.67196
O          O       0.43804   0.69448   0.71660  -0.70242
O          O       0.18377   0.73215   0.32280  -0.65192
O          O       0.10485   0.66540   0.29613  -0.63737
O          O       0.25814   0.79928   0.72961  -0.78023
O          O       0.13328   0.75227   0.70655  -0.65782
O          O       0.03799   0.78399   0.31688  -0.72738
O          O       0.97103   0.83947   0.30465  -0.64718
O          O       0.10404   0.26374   0.79800  -0.67107
O          O       0.24148   0.30383   0.78328  -0.70440
O          O       0.94645   0.26565   0.17510  -0.64932
O          O       0.94217   0.33271   0.20348  -0.63805
O          O       0.95778   0.20112   0.77044  -0.77839
O          O       0.87937   0.24756   0.79362  -0.66241
O          O       0.74991   0.21556   0.18316  -0.72697
O          O       0.62902   0.15857   0.19558  -0.64715
O          O       0.39608   0.73590   0.79796  -0.67242
O          O       0.25815   0.69630   0.78348  -0.70571
O          O       0.55356   0.73422   0.17514  -0.64844
O          O       0.55806   0.66734   0.20391  -0.63929
O          O       0.54250   0.79924   0.77019  -0.77691
O          O       0.62518   0.75444   0.79171  -0.66004
O          O       0.75017   0.78397   0.18314  -0.72706
O          O       0.87130   0.84087   0.19553  -0.64471
O          O       0.84171   0.73665   0.29794  -0.66924
O          O       0.93833   0.69645   0.28320  -0.70467
O          O       0.68326   0.73421   0.67491  -0.65005
O          O       0.60869   0.66710   0.70236  -0.64026
O          O       0.75829   0.79943   0.27040  -0.78323
O          O       0.63359   0.75239   0.29365  -0.66043
O          O       0.53383   0.78344   0.68303  -0.73115
O          O       0.46992   0.83991   0.69552  -0.64377
O          O       0.65467   0.26340   0.29786  -0.67198
O          O       0.56013   0.30508   0.28337  -0.69877
O          O       0.81610   0.26793   0.67707  -0.64886
O          O       0.89154   0.33502   0.70418  -0.63878
O          O       0.74164   0.20074   0.27037  -0.78200
O          O       0.86640   0.24764   0.29361  -0.65755
O          O       0.95862   0.21654   0.68310  -0.72566
O          O       0.03028   0.16274   0.69401  -0.64988
O          O       0.89587   0.73659   0.20206  -0.67015
O          O       0.75827   0.69639   0.21673  -0.70483
O          O       0.05328   0.73444   0.82493  -0.65038
O          O       0.05877   0.66709   0.79769  -0.63921
O          O       0.04269   0.79916   0.22938  -0.78297
O          O       0.12412   0.75410   0.20665  -0.65996
O          O       0.25036   0.78387   0.81687  -0.72797
O          O       0.37304   0.83965   0.80459  -0.64260
O          O       0.60414   0.26343   0.20204  -0.67357
O          O       0.74177   0.30353   0.21673  -0.70489
O          O       0.44674   0.26779   0.82479  -0.65245
O          O       0.43767   0.33475   0.79784  -0.63632
O          O       0.45679   0.20077   0.22956  -0.78065
O          O       0.37948   0.24765   0.20642  -0.65836
O          O       0.25051   0.21645   0.81680  -0.72751
O          O       0.12849   0.16033   0.80441  -0.64448

