data_crystal

_audit_creation_method 'AiiDA-DDEC plugin'

_cell_length_a        13.50016
_cell_length_b        17.28711
_cell_length_c        23.61416

_cell_angle_alpha     90.00000
_cell_angle_beta     90.00000
_cell_angle_gamma     90.00000

_symmetry_space_group_name_Hall 'P 1'
_symmetry_space_group_name_H-M  'P 1'

loop_
_symmetry_equiv_pos_as_xyz
 'x,y,z'

loop_
_atom_site_label
_atom_site_type_symbol
_atom_site_fract_x
_atom_site_fract_y
_atom_site_fract_z
_atom_site_charge
Co         Co      0.51954   0.34977   0.57629   0.82752
Co         Co      0.51954   0.15023   0.92371   0.82749
Co         Co      0.98045   0.65023   0.07629   0.82747
Co         Co      0.98045   0.84977   0.42371   0.82752
Co         Co      0.48045   0.65023   0.42371   0.82756
Co         Co      0.48045   0.84977   0.07629   0.82749
Co         Co      0.01954   0.34977   0.92371   0.82748
Co         Co      0.01955   0.15023   0.57629   0.82747
H          H       0.19451   0.26399   0.49483   0.10774
H          H       0.08372   0.26591   0.40968   0.13717
H          H       0.29733   0.40477   0.32045   0.12417
H          H       0.40723   0.40387   0.40617   0.11819
H          H       0.10490   0.29681   0.20922   0.12423
H          H       0.06825   0.39276   0.13211   0.11608
H          H       0.08157   0.57758   0.25319   0.11263
H          H       0.12532   0.48186   0.32998   0.11396
H          H       0.60066   0.45322   0.47860   0.13951
H          H       0.87987   0.47085   0.55938   0.12541
H          H       0.75233   0.38274   0.62675   0.11844
H          H       0.85192   0.55207   0.47212   0.10664
H          H       0.73030   0.56175   0.44648   0.11157
H          H       0.84661   0.48604   0.26438   0.10323
H          H       0.88317   0.34582   0.27456   0.10718
H          H       0.87209   0.28398   0.37010   0.09994
H          H       0.82755   0.36234   0.45361   0.10765
H          H       0.78918   0.60077   0.29887   0.10821
H          H       0.72519   0.60661   0.36437   0.12080
H          H       0.78935   0.73400   0.39870   0.11711
H          H       0.09703   0.69305   0.40290   0.11509
H          H       0.00088   0.56526   0.35342   0.12154
H          H       0.19451   0.23601   0.00517   0.10775
H          H       0.08372   0.23409   0.09032   0.13716
H          H       0.29733   0.09523   0.17955   0.12418
H          H       0.40723   0.09613   0.09383   0.11820
H          H       0.10490   0.20319   0.29078   0.12423
H          H       0.06825   0.10724   0.36789   0.11607
H          H       0.08157   0.92242   0.24681   0.11262
H          H       0.12532   0.01814   0.17002   0.11394
H          H       0.60066   0.04678   0.02140   0.13951
H          H       0.87987   0.02915   0.94062   0.12541
H          H       0.75233   0.11726   0.87325   0.11844
H          H       0.85192   0.94793   0.02788   0.10664
H          H       0.73030   0.93825   0.05352   0.11157
H          H       0.84661   0.01396   0.23562   0.10321
H          H       0.88317   0.15418   0.22544   0.10717
H          H       0.87209   0.21602   0.12990   0.09995
H          H       0.82755   0.13766   0.04639   0.10769
H          H       0.78918   0.89923   0.20113   0.10821
H          H       0.72519   0.89339   0.13563   0.12082
H          H       0.78935   0.76600   0.10130   0.11709
H          H       0.09703   0.80695   0.09710   0.11511
H          H       0.00088   0.93474   0.14658   0.12150
H          H       0.30548   0.73601   0.99483   0.10770
H          H       0.41628   0.73410   0.90968   0.13715
H          H       0.20267   0.59523   0.82045   0.12420
H          H       0.09277   0.59613   0.90617   0.11822
H          H       0.39509   0.70319   0.70922   0.12425
H          H       0.43174   0.60724   0.63211   0.11610
H          H       0.41842   0.42242   0.75319   0.11255
H          H       0.37467   0.51814   0.82998   0.11388
H          H       0.89934   0.54678   0.97860   0.13940
H          H       0.62013   0.52915   0.05938   0.12552
H          H       0.74766   0.61726   0.12675   0.11848
H          H       0.64807   0.44793   0.97211   0.10685
H          H       0.76969   0.43825   0.94648   0.11136
H          H       0.65339   0.51396   0.76438   0.10323
H          H       0.61682   0.65418   0.77456   0.10724
H          H       0.62790   0.71602   0.87010   0.09998
H          H       0.67245   0.63766   0.95361   0.10759
H          H       0.71082   0.39923   0.79887   0.10822
H          H       0.77481   0.39339   0.86437   0.12069
H          H       0.71065   0.26600   0.89870   0.11700
H          H       0.40296   0.30695   0.90290   0.11512
H          H       0.49912   0.43474   0.85342   0.12156
H          H       0.30548   0.76399   0.50516   0.10775
H          H       0.41628   0.76591   0.59032   0.13712
H          H       0.20267   0.90477   0.67955   0.12420
H          H       0.09277   0.90387   0.59383   0.11822
H          H       0.39509   0.79681   0.79078   0.12425
H          H       0.43174   0.89276   0.86788   0.11607
H          H       0.41842   0.07758   0.74681   0.11261
H          H       0.37467   0.98186   0.67002   0.11397
H          H       0.89934   0.95322   0.52140   0.13939
H          H       0.62013   0.97085   0.44062   0.12551
H          H       0.74766   0.88274   0.37325   0.11849
H          H       0.64807   0.05207   0.52788   0.10686
H          H       0.76969   0.06175   0.55352   0.11140
H          H       0.65339   0.98604   0.73562   0.10321
H          H       0.61682   0.84582   0.72544   0.10724
H          H       0.62790   0.78398   0.62990   0.09999
H          H       0.67245   0.86234   0.54639   0.10761
H          H       0.71082   0.10077   0.70113   0.10820
H          H       0.77481   0.10661   0.63563   0.12074
H          H       0.71065   0.23400   0.60130   0.11699
H          H       0.40296   0.19305   0.59710   0.11510
H          H       0.49912   0.06526   0.64658   0.12159
H          H       0.80548   0.73601   0.50517   0.10769
H          H       0.91628   0.73410   0.59032   0.13714
H          H       0.70267   0.59523   0.67955   0.12424
H          H       0.59277   0.59613   0.59383   0.11825
H          H       0.89509   0.70319   0.79078   0.12428
H          H       0.93174   0.60724   0.86788   0.11605
H          H       0.91842   0.42242   0.74681   0.11258
H          H       0.87467   0.51814   0.67002   0.11396
H          H       0.39934   0.54678   0.52140   0.13940
H          H       0.12013   0.52915   0.44062   0.12546
H          H       0.24766   0.61726   0.37325   0.11846
H          H       0.14808   0.44793   0.52788   0.10679
H          H       0.26969   0.43825   0.55352   0.11140
H          H       0.15339   0.51396   0.73562   0.10321
H          H       0.11683   0.65418   0.72544   0.10722
H          H       0.12790   0.71602   0.62990   0.09997
H          H       0.17245   0.63766   0.54639   0.10762
H          H       0.21082   0.39923   0.70113   0.10820
H          H       0.27481   0.39339   0.63563   0.12078
H          H       0.21065   0.26600   0.60130   0.11702
H          H       0.90296   0.30695   0.59710   0.11513
H          H      -0.00089   0.43474   0.64658   0.12156
H          H       0.80548   0.76399   0.99483   0.10760
H          H       0.91628   0.76591   0.90968   0.13712
H          H       0.70267   0.90477   0.82045   0.12423
H          H       0.59277   0.90387   0.90617   0.11827
H          H       0.89509   0.79681   0.70922   0.12426
H          H       0.93174   0.89276   0.63211   0.11608
H          H       0.91842   0.07758   0.75319   0.11264
H          H       0.87467   0.98186   0.82998   0.11390
H          H       0.39934   0.95322   0.97860   0.13939
H          H       0.12013   0.97085   0.05938   0.12546
H          H       0.24766   0.88274   0.12675   0.11846
H          H       0.14808   0.05207   0.97211   0.10681
H          H       0.26969   0.06175   0.94648   0.11141
H          H       0.15339   0.98604   0.76438   0.10321
H          H       0.11683   0.84582   0.77456   0.10722
H          H       0.12790   0.78398   0.87010   0.09998
H          H       0.17245   0.86234   0.95361   0.10760
H          H       0.21082   0.10077   0.79887   0.10822
H          H       0.27481   0.10661   0.86437   0.12074
H          H       0.21065   0.23400   0.89870   0.11702
H          H       0.90296   0.19305   0.90290   0.11516
H          H      -0.00089   0.06526   0.85342   0.12157
H          H       0.69451   0.26399   0.00516   0.10776
H          H       0.58372   0.26591   0.09032   0.13722
H          H       0.79732   0.40477   0.17955   0.12413
H          H       0.90723   0.40387   0.09383   0.11815
H          H       0.60490   0.29681   0.29078   0.12422
H          H       0.56825   0.39276   0.36788   0.11604
H          H       0.58157   0.57758   0.24681   0.11263
H          H       0.62532   0.48186   0.17002   0.11396
H          H       0.10066   0.45322   0.02140   0.13953
H          H       0.37987   0.47085   0.94062   0.12544
H          H       0.25233   0.38274   0.87325   0.11849
H          H       0.35192   0.55207   0.02788   0.10674
H          H       0.23030   0.56175   0.05352   0.11155
H          H       0.34661   0.48604   0.23562   0.10322
H          H       0.38317   0.34582   0.22544   0.10719
H          H       0.37209   0.28398   0.12990   0.09995
H          H       0.32755   0.36234   0.04639   0.10762
H          H       0.28918   0.60077   0.20113   0.10819
H          H       0.22519   0.60661   0.13563   0.12080
H          H       0.28935   0.73400   0.10130   0.11711
H          H       0.59703   0.69305   0.09710   0.11507
H          H       0.50088   0.56526   0.14658   0.12151
H          H       0.69451   0.23601   0.49483   0.10776
H          H       0.58372   0.23409   0.40968   0.13723
H          H       0.79733   0.09523   0.32045   0.12416
H          H       0.90723   0.09613   0.40617   0.11816
H          H       0.60490   0.20319   0.20922   0.12423
H          H       0.56825   0.10724   0.13211   0.11610
H          H       0.58157   0.92242   0.25319   0.11262
H          H       0.62532   0.01814   0.32998   0.11393
H          H       0.10066   0.04678   0.47860   0.13953
H          H       0.37987   0.02915   0.55938   0.12540
H          H       0.25233   0.11726   0.62675   0.11844
H          H       0.35192   0.94793   0.47211   0.10666
H          H       0.23030   0.93825   0.44648   0.11152
H          H       0.34661   0.01396   0.26438   0.10322
H          H       0.38317   0.15418   0.27456   0.10722
H          H       0.37209   0.21602   0.37010   0.09995
H          H       0.32755   0.13766   0.45361   0.10761
H          H       0.28918   0.89923   0.29887   0.10820
H          H       0.22519   0.89339   0.36437   0.12081
H          H       0.28935   0.76600   0.39870   0.11709
H          H       0.59703   0.80695   0.40290   0.11492
H          H       0.50088   0.93474   0.35342   0.12151
C          C       0.30828   0.33270   0.45519  -0.06459
C          C       0.21649   0.29471   0.45663  -0.07885
C          C       0.15454   0.29582   0.40954  -0.20440
C          C       0.18495   0.33523   0.36079   0.25405
C          C       0.27538   0.37463   0.35882  -0.22411
C          C       0.33677   0.37320   0.40623  -0.07092
C          C       0.37547   0.33101   0.50504   0.54318
C          C       0.11479   0.38452   0.27342   0.25814
C          C       0.10009   0.35833   0.21810  -0.20012
C          C       0.07920   0.41151   0.17567  -0.07053
C          C       0.07152   0.49060   0.18826  -0.05828
C          C       0.08824   0.51609   0.24394  -0.08635
C          C       0.11141   0.46333   0.28670  -0.22719
C          C       0.04492   0.54533   0.14212   0.53631
C          C       0.65785   0.44423   0.51027   0.10944
C          C       0.80357   0.45341   0.55361  -0.12317
C          C       0.74016   0.40933   0.58584  -0.05036
C          C       0.78703   0.51905   0.45774  -0.11606
C          C       0.81203   0.46908   0.40691   0.03768
C          C       0.81592   0.50342   0.35274   0.02686
C          C       0.84208   0.45846   0.30577  -0.14060
C          C       0.86270   0.37975   0.31154  -0.08606
C          C       0.85736   0.34546   0.36495  -0.07045
C          C       0.83225   0.39000   0.41228  -0.14963
C          C       0.79478   0.58826   0.34432  -0.11945
C          C       0.86149   0.70860   0.39140   0.07850
C          C       0.01988   0.68266   0.39338  -0.03851
C          C       0.97384   0.61974   0.36965  -0.12777
C          C       0.30828   0.16730   0.04481  -0.06462
C          C       0.21649   0.20529   0.04337  -0.07884
C          C       0.15454   0.20418   0.09046  -0.20439
C          C       0.18495   0.16477   0.13921   0.25407
C          C       0.27538   0.12537   0.14118  -0.22422
C          C       0.33677   0.12680   0.09377  -0.07086
C          C       0.37547   0.16899   0.99495   0.54312
C          C       0.11479   0.11548   0.22658   0.25821
C          C       0.10009   0.14167   0.28190  -0.20013
C          C       0.07920   0.08849   0.32433  -0.07057
C          C       0.07152   0.00940   0.31174  -0.05818
C          C       0.08824   0.98391   0.25606  -0.08636
C          C       0.11141   0.03667   0.21330  -0.22717
C          C       0.04492   0.95468   0.35788   0.53606
C          C       0.65785   0.05577   0.98973   0.10928
C          C       0.80357   0.04659   0.94639  -0.12315
C          C       0.74016   0.09068   0.91416  -0.05034
C          C       0.78703   0.98095   0.04226  -0.11609
C          C       0.81203   0.03092   0.09309   0.03768
C          C       0.81592   0.99659   0.14726   0.02686
C          C       0.84208   0.04154   0.19423  -0.14059
C          C       0.86271   0.12025   0.18846  -0.08607
C          C       0.85736   0.15454   0.13505  -0.07046
C          C       0.83225   0.11000   0.08772  -0.14965
C          C       0.79478   0.91174   0.15568  -0.11945
C          C       0.86149   0.79140   0.10860   0.07848
C          C       0.01988   0.81734   0.10662  -0.03853
C          C       0.97384   0.88026   0.13035  -0.12771
C          C       0.19172   0.66730   0.95519  -0.06461
C          C       0.28351   0.70529   0.95663  -0.07877
C          C       0.34546   0.70418   0.90954  -0.20450
C          C       0.31505   0.66477   0.86079   0.25407
C          C       0.22461   0.62537   0.85882  -0.22419
C          C       0.16323   0.62680   0.90623  -0.07078
C          C       0.12453   0.66899   0.00505   0.54290
C          C       0.38520   0.61548   0.77342   0.25811
C          C       0.39990   0.64167   0.71810  -0.20004
C          C       0.42079   0.58849   0.67567  -0.07060
C          C       0.42848   0.50940   0.68826  -0.05831
C          C       0.41176   0.48391   0.74394  -0.08628
C          C       0.38858   0.53667   0.78670  -0.22708
C          C       0.45508   0.45468   0.64212   0.53620
C          C       0.84214   0.55577   0.01027   0.10907
C          C       0.69643   0.54659   0.05361  -0.12294
C          C       0.75983   0.59068   0.08584  -0.05037
C          C       0.71297   0.48095   0.95774  -0.11599
C          C       0.68797   0.53092   0.90691   0.03745
C          C       0.68407   0.49659   0.85274   0.02699
C          C       0.65792   0.54154   0.80577  -0.14062
C          C       0.63729   0.62025   0.81154  -0.08607
C          C       0.64263   0.65454   0.86495  -0.07047
C          C       0.66774   0.61000   0.91228  -0.14946
C          C       0.70521   0.41174   0.84432  -0.11945
C          C       0.63851   0.29140   0.89140   0.07813
C          C       0.48011   0.31734   0.89338  -0.03833
C          C       0.52615   0.38026   0.86965  -0.12749
C          C       0.19172   0.83270   0.54481  -0.06457
C          C       0.28351   0.79471   0.54337  -0.07881
C          C       0.34546   0.79582   0.59046  -0.20449
C          C       0.31505   0.83523   0.63921   0.25407
C          C       0.22461   0.87463   0.64117  -0.22419
C          C       0.16323   0.87320   0.59377  -0.07081
C          C       0.12453   0.83101   0.49495   0.54303
C          C       0.38520   0.88452   0.72658   0.25828
C          C       0.39991   0.85833   0.78190  -0.20017
C          C       0.42079   0.91151   0.82433  -0.07055
C          C       0.42848   0.99060   0.81174  -0.05831
C          C       0.41176   0.01609   0.75606  -0.08632
C          C       0.38858   0.96333   0.71330  -0.22720
C          C       0.45508   0.04533   0.85788   0.53610
C          C       0.84214   0.94423   0.48973   0.10910
C          C       0.69643   0.95341   0.44639  -0.12283
C          C       0.75983   0.90932   0.41416  -0.05038
C          C       0.71297   0.01905   0.54226  -0.11605
C          C       0.68797   0.96908   0.59309   0.03757
C          C       0.68407   0.00342   0.64726   0.02688
C          C       0.65791   0.95846   0.69423  -0.14061
C          C       0.63729   0.87975   0.68846  -0.08607
C          C       0.64263   0.84546   0.63505  -0.07052
C          C       0.66774   0.89000   0.58772  -0.14945
C          C       0.70521   0.08826   0.65568  -0.11948
C          C       0.63851   0.20860   0.60860   0.07814
C          C       0.48011   0.18266   0.60662  -0.03820
C          C       0.52616   0.11974   0.63035  -0.12772
C          C       0.69172   0.66730   0.54481  -0.06449
C          C       0.78351   0.70529   0.54337  -0.07871
C          C       0.84546   0.70418   0.59046  -0.20463
C          C       0.81505   0.66477   0.63921   0.25400
C          C       0.72461   0.62537   0.64117  -0.22415
C          C       0.66323   0.62680   0.59377  -0.07085
C          C       0.62452   0.66899   0.49495   0.54283
C          C       0.88520   0.61548   0.72658   0.25813
C          C       0.89990   0.64167   0.78190  -0.20015
C          C       0.92079   0.58849   0.82433  -0.07054
C          C       0.92848   0.50940   0.81174  -0.05832
C          C       0.91176   0.48391   0.75606  -0.08628
C          C       0.88858   0.53667   0.71330  -0.22717
C          C       0.95508   0.45468   0.85788   0.53616
C          C       0.34214   0.55577   0.48973   0.10907
C          C       0.19643   0.54659   0.44639  -0.12306
C          C       0.25983   0.59068   0.41416  -0.05029
C          C       0.21297   0.48095   0.54226  -0.11599
C          C       0.18797   0.53092   0.59309   0.03749
C          C       0.18407   0.49659   0.64726   0.02691
C          C       0.15792   0.54154   0.69423  -0.14057
C          C       0.13729   0.62025   0.68846  -0.08611
C          C       0.14264   0.65454   0.63505  -0.07049
C          C       0.16775   0.61000   0.58772  -0.14947
C          C       0.20521   0.41174   0.65568  -0.11948
C          C       0.13851   0.29140   0.60860   0.07814
C          C       0.98011   0.31734   0.60662  -0.03834
C          C       0.02616   0.38026   0.63035  -0.12770
C          C       0.69172   0.83270   0.95519  -0.06450
C          C       0.78351   0.79471   0.95663  -0.07874
C          C       0.84546   0.79582   0.90954  -0.20448
C          C       0.81505   0.83523   0.86079   0.25395
C          C       0.72461   0.87463   0.85882  -0.22408
C          C       0.66323   0.87320   0.90623  -0.07085
C          C       0.62453   0.83101   0.00504   0.54274
C          C       0.88520   0.88452   0.77342   0.25818
C          C       0.89990   0.85833   0.71810  -0.20012
C          C       0.92079   0.91151   0.67567  -0.07055
C          C       0.92848   0.99060   0.68826  -0.05832
C          C       0.91176   0.01609   0.74394  -0.08641
C          C       0.88858   0.96333   0.78670  -0.22707
C          C       0.95508   0.04533   0.64212   0.53615
C          C       0.34214   0.94423   0.01027   0.10916
C          C       0.19643   0.95341   0.05361  -0.12305
C          C       0.25983   0.90932   0.08584  -0.05033
C          C       0.21297   0.01905   0.95774  -0.11608
C          C       0.18797   0.96908   0.90691   0.03753
C          C       0.18407   0.00342   0.85274   0.02689
C          C       0.15792   0.95846   0.80577  -0.14058
C          C       0.13729   0.87975   0.81154  -0.08604
C          C       0.14264   0.84546   0.86495  -0.07052
C          C       0.16775   0.89000   0.91228  -0.14947
C          C       0.20521   0.08826   0.84432  -0.11941
C          C       0.13851   0.20860   0.89140   0.07816
C          C       0.98011   0.18266   0.89338  -0.03835
C          C       0.02616   0.11974   0.86965  -0.12771
C          C       0.80827   0.33270   0.04481  -0.06477
C          C       0.71649   0.29471   0.04337  -0.07874
C          C       0.65454   0.29582   0.09046  -0.20440
C          C       0.68495   0.33523   0.13921   0.25406
C          C       0.77538   0.37463   0.14117  -0.22412
C          C       0.83677   0.37320   0.09377  -0.07086
C          C       0.87547   0.33101   0.99495   0.54336
C          C       0.61479   0.38452   0.22658   0.25818
C          C       0.60009   0.35833   0.28190  -0.20014
C          C       0.57920   0.41151   0.32433  -0.07049
C          C       0.57151   0.49060   0.31174  -0.05826
C          C       0.58824   0.51609   0.25606  -0.08635
C          C       0.61141   0.46333   0.21330  -0.22718
C          C       0.54492   0.54533   0.35787   0.53636
C          C       0.15786   0.44423   0.98973   0.10908
C          C       0.30357   0.45341   0.94639  -0.12315
C          C       0.24016   0.40933   0.91416  -0.05038
C          C       0.28703   0.51905   0.04226  -0.11617
C          C       0.31203   0.46908   0.09309   0.03761
C          C       0.31592   0.50342   0.14726   0.02686
C          C       0.34208   0.45846   0.19423  -0.14059
C          C       0.36271   0.37975   0.18846  -0.08605
C          C       0.35736   0.34546   0.13505  -0.07048
C          C       0.33225   0.39000   0.08772  -0.14953
C          C       0.29479   0.58826   0.15568  -0.11943
C          C       0.36149   0.70860   0.10860   0.07821
C          C       0.51988   0.68266   0.10662  -0.03852
C          C       0.47384   0.61974   0.13035  -0.12764
C          C       0.80827   0.16730   0.45519  -0.06472
C          C       0.71649   0.20529   0.45663  -0.07878
C          C       0.65454   0.20418   0.40954  -0.20440
C          C       0.68495   0.16477   0.36079   0.25398
C          C       0.77538   0.12537   0.35882  -0.22411
C          C       0.83677   0.12680   0.40623  -0.07089
C          C       0.87547   0.16899   0.50504   0.54333
C          C       0.61479   0.11548   0.27342   0.25819
C          C       0.60009   0.14167   0.21810  -0.20013
C          C       0.57920   0.08849   0.17567  -0.07060
C          C       0.57151   0.00940   0.18826  -0.05817
C          C       0.58824   0.98391   0.24394  -0.08638
C          C       0.61141   0.03667   0.28670  -0.22715
C          C       0.54492   0.95468   0.14212   0.53614
C          C       0.15786   0.05577   0.51027   0.10911
C          C       0.30357   0.04659   0.55361  -0.12311
C          C       0.24016   0.09068   0.58584  -0.05039
C          C       0.28703   0.98095   0.45774  -0.11605
C          C       0.31203   0.03092   0.40691   0.03762
C          C       0.31592   0.99659   0.35274   0.02686
C          C       0.34208   0.04154   0.30577  -0.14058
C          C       0.36271   0.12025   0.31154  -0.08608
C          C       0.35736   0.15454   0.36495  -0.07047
C          C       0.33225   0.11000   0.41228  -0.14954
C          C       0.29479   0.91174   0.34432  -0.11944
C          C       0.36149   0.79140   0.39140   0.07833
C          C       0.51988   0.81734   0.39338  -0.03822
C          C       0.47384   0.88026   0.36965  -0.12774
N          N       0.64984   0.40354   0.55822  -0.30575
N          N       0.75020   0.47525   0.50620   0.05772
N          N       0.87357   0.63700   0.36868   0.06179
N          N       0.94919   0.73802   0.40657  -0.30449
N          N       0.64984   0.09646   0.94178  -0.30568
N          N       0.75020   0.02475   0.99380   0.05781
N          N       0.87357   0.86300   0.13132   0.06178
N          N       0.94919   0.76198   0.09343  -0.30447
N          N       0.85016   0.59646   0.05822  -0.30571
N          N       0.74980   0.52475   0.00620   0.05785
N          N       0.62642   0.36300   0.86868   0.06158
N          N       0.55080   0.26198   0.90657  -0.30422
N          N       0.85016   0.90354   0.44178  -0.30574
N          N       0.74980   0.97525   0.49380   0.05777
N          N       0.62642   0.13700   0.63132   0.06173
N          N       0.55080   0.23802   0.59343  -0.30424
N          N       0.35016   0.59646   0.44178  -0.30567
N          N       0.24980   0.52475   0.49380   0.05795
N          N       0.12642   0.36300   0.63132   0.06172
N          N       0.05081   0.26198   0.59343  -0.30418
N          N       0.35016   0.90354   0.05822  -0.30573
N          N       0.24980   0.97525   0.00620   0.05798
N          N       0.12642   0.13700   0.86868   0.06171
N          N       0.05081   0.23802   0.90657  -0.30423
N          N       0.14984   0.40354   0.94178  -0.30570
N          N       0.25020   0.47525   0.99380   0.05802
N          N       0.37357   0.63700   0.13132   0.06175
N          N       0.44919   0.73802   0.09343  -0.30420
N          N       0.14984   0.09646   0.55822  -0.30566
N          N       0.25020   0.02475   0.50620   0.05799
N          N       0.37357   0.86300   0.36868   0.06180
N          N       0.44919   0.76198   0.40657  -0.30444
O          O       0.46495   0.35520   0.49731  -0.54015
O          O       0.34549   0.30837   0.55325  -0.57491
O          O       0.04509   0.52315   0.09101  -0.55030
O          O       0.02057   0.61561   0.15482  -0.55685
O          O       0.12391   0.32717   0.31409  -0.20791
O          O       0.46495   0.14480   0.00269  -0.54014
O          O       0.34549   0.19163   0.94675  -0.57485
O          O       0.04509   0.97685   0.40899  -0.55020
O          O       0.02058   0.88439   0.34518  -0.55676
O          O       0.12391   0.17283   0.18591  -0.20793
O          O       0.03505   0.64480   0.99731  -0.53997
O          O       0.15450   0.69163   0.05325  -0.57486
O          O       0.45491   0.47685   0.59101  -0.55017
O          O       0.47942   0.38439   0.65482  -0.55687
O          O       0.37608   0.67283   0.81409  -0.20794
O          O       0.03505   0.85520   0.50269  -0.54005
O          O       0.15450   0.80837   0.44675  -0.57490
O          O       0.45491   0.02315   0.90899  -0.55021
O          O       0.47942   0.11561   0.84518  -0.55670
O          O       0.37609   0.82718   0.68591  -0.20799
O          O       0.53505   0.64480   0.50269  -0.53987
O          O       0.65450   0.69163   0.44675  -0.57486
O          O       0.95491   0.47685   0.90899  -0.55022
O          O       0.97942   0.38439   0.84518  -0.55683
O          O       0.87608   0.67283   0.68591  -0.20789
O          O       0.53505   0.85520   0.99731  -0.53978
O          O       0.65450   0.80837   0.05325  -0.57486
O          O       0.95491   0.02315   0.59101  -0.55017
O          O       0.97942   0.11561   0.65482  -0.55682
O          O       0.87608   0.82718   0.81409  -0.20798
O          O       0.96495   0.35520   0.00269  -0.54034
O          O       0.84549   0.30837   0.94675  -0.57490
O          O       0.54509   0.52315   0.40899  -0.55034
O          O       0.52057   0.61561   0.34518  -0.55688
O          O       0.62391   0.32717   0.18591  -0.20792
O          O       0.96495   0.14480   0.49731  -0.54030
O          O       0.84549   0.19163   0.55325  -0.57494
O          O       0.54509   0.97685   0.09101  -0.55024
O          O       0.52057   0.88439   0.15482  -0.55679
O          O       0.62391   0.17283   0.31409  -0.20787

