data_crystal

_audit_creation_method 'AiiDA-DDEC plugin'

_cell_length_a        14.18106
_cell_length_b        20.36096
_cell_length_c        21.42242

_cell_angle_alpha     108.42377
_cell_angle_beta     109.45768
_cell_angle_gamma     89.90690

_symmetry_space_group_name_Hall 'P 1'
_symmetry_space_group_name_H-M  'P 1'

loop_
_symmetry_equiv_pos_as_xyz
 'x,y,z'

loop_
_atom_site_label
_atom_site_type_symbol
_atom_site_fract_x
_atom_site_fract_y
_atom_site_fract_z
_atom_site_charge
Co         Co      0.87961   0.88352   0.82942   0.82181
Co         Co      0.43606   0.66464   0.55674   0.85580
Co         Co      0.05018   0.61717   0.17012   0.82164
Co         Co      0.87922   0.83346   0.44316   0.85467
Co         Co      0.12039   0.11648   0.17058   0.82178
Co         Co      0.56394   0.33536   0.44327   0.85588
Co         Co      0.94982   0.38283   0.82988   0.82171
Co         Co      0.12078   0.16653   0.55685   0.85463
H          H       0.91471   0.63419   0.84969   0.11518
H          H       0.91012   0.47487   0.66033   0.11519
H          H       0.88329   0.56319   0.59880   0.10200
H          H       0.87017   0.68596   0.66328   0.10855
H          H       0.03671   0.82383   0.93907   0.12973
H          H       0.25924   0.97946   0.96439   0.12260
H          H       0.07399   0.99142   0.87095   0.13261
H          H       0.13557   0.85689   0.06565   0.13454
H          H       0.26066   0.82763   0.16126   0.10997
H          H       0.49415   0.86518   0.08575   0.10819
H          H       0.36669   0.88970   0.98639   0.11114
H          H       0.88474   0.71914   0.15802   0.12592
H          H       0.67042   0.55102   0.11630   0.12784
H          H       0.85404   0.50180   0.11410   0.12328
H          H       0.78583   0.75517   0.25647   0.12580
H          H       0.66443   0.83708   0.28229   0.12607
H          H       0.45065   0.73392   0.07415   0.09817
H          H       0.57150   0.65001   0.04974   0.11793
H          H       0.50469   0.73297   0.45946   0.11751
H          H       0.22743   0.62547   0.42439   0.12996
H          H       0.20470   0.67327   0.31292   0.14677
H          H       0.48033   0.83224   0.41579   0.12978
H          H       0.52531   0.88635   0.34188   0.11233
H          H       0.34201   0.72029   0.15660   0.10105
H          H       0.29830   0.66453   0.23157   0.11543
H          H       0.46630   0.17609   0.35177   0.11892
H          H       0.74660   0.28474   0.39773   0.12825
H          H       0.75187   0.14457   0.32853   0.12968
H          H       0.42586   0.06757   0.31334   0.12886
H          H       0.37730   0.94235   0.26069   0.11017
H          H       0.65277   0.91504   0.21705   0.10943
H          H       0.70252   0.04062   0.26962   0.12354
H          H       0.38935   0.45748   0.49219   0.13316
H          H       0.20361   0.28183   0.47410   0.09909
H          H       0.09487   0.36254   0.52579   0.09629
H          H       0.13526   0.49153   0.56034   0.10807
H          H       0.06459   0.86638   0.15029   0.11591
H          H       0.25059   0.02481   0.34014   0.11501
H          H       0.28403   0.93640   0.40151   0.10162
H          H       0.20503   0.81398   0.33671   0.10887
H          H       0.09734   0.67633   0.06042   0.13032
H          H       0.29567   0.52101   0.03608   0.12348
H          H       0.20401   0.50888   0.12910   0.13266
H          H       0.07017   0.64395   0.93442   0.13432
H          H       0.09968   0.67294   0.83903   0.11070
H          H       0.40910   0.63525   0.91524   0.10754
H          H       0.38110   0.61084   0.01441   0.11117
H          H       0.72722   0.78048   0.84171   0.12738
H          H       0.55406   0.94849   0.88394   0.12797
H          H       0.73936   0.99792   0.88597   0.12280
H          H       0.52844   0.74444   0.74344   0.12614
H          H       0.38128   0.66291   0.71815   0.12618
H          H       0.37807   0.76614   0.92661   0.09829
H          H       0.52349   0.84969   0.95071   0.11761
H          H       0.04470   0.76635   0.54091   0.11742
H          H       0.80295   0.87504   0.57562   0.13022
H          H       0.89249   0.82785   0.68772   0.14782
H          H       0.06468   0.66814   0.58477   0.13095
H          H       0.18356   0.61370   0.65883   0.11318
H          H       0.18625   0.78004   0.84398   0.10165
H          H       0.06721   0.83599   0.76880   0.11510
H          H       0.11554   0.32489   0.64926   0.11974
H          H       0.34925   0.21580   0.60254   0.12864
H          H       0.42399   0.35608   0.67171   0.12985
H          H       0.11298   0.43294   0.68667   0.12761
H          H       0.11673   0.55813   0.73966   0.11093
H          H       0.43625   0.58541   0.78413   0.11038
H          H       0.43374   0.45980   0.73139   0.12348
H          H       0.89932   0.04376   0.50758   0.13293
H          H       0.72640   0.21717   0.52437   0.09831
H          H       0.56765   0.13501   0.47360   0.09607
H          H       0.57702   0.00623   0.43950   0.10822
H          H       0.08529   0.36581   0.15032   0.11518
H          H       0.08988   0.52512   0.33967   0.11507
H          H       0.11671   0.43681   0.40120   0.10209
H          H       0.12983   0.31404   0.33672   0.10876
H          H       0.96329   0.17617   0.06093   0.12958
H          H       0.74076   0.02054   0.03561   0.12270
H          H       0.92602   0.00858   0.12906   0.13272
H          H       0.86443   0.14311   0.93435   0.13461
H          H       0.73934   0.17237   0.83874   0.10986
H          H       0.50585   0.13482   0.91425   0.10822
H          H       0.63331   0.11030   0.01361   0.11129
H          H       0.11526   0.28085   0.84198   0.12597
H          H       0.32958   0.44898   0.88370   0.12780
H          H       0.14596   0.49820   0.88590   0.12316
H          H       0.21417   0.24483   0.74353   0.12576
H          H       0.33557   0.16291   0.71771   0.12609
H          H       0.54935   0.26608   0.92585   0.09830
H          H       0.42850   0.34999   0.95026   0.11796
H          H       0.49531   0.26703   0.54054   0.11755
H          H       0.77257   0.37453   0.57561   0.12987
H          H       0.79530   0.32672   0.68708   0.14677
H          H       0.51967   0.16775   0.58421   0.12980
H          H       0.47469   0.11365   0.65812   0.11248
H          H       0.65799   0.27971   0.84340   0.10108
H          H       0.70170   0.33547   0.76843   0.11537
H          H       0.53370   0.82390   0.64823   0.11895
H          H       0.25340   0.71526   0.60227   0.12823
H          H       0.24813   0.85542   0.67147   0.12959
H          H       0.57414   0.93243   0.68666   0.12890
H          H       0.62270   0.05765   0.73931   0.11013
H          H       0.34723   0.08495   0.78296   0.10934
H          H       0.29748   0.95938   0.73038   0.12365
H          H       0.61065   0.54252   0.50781   0.13326
H          H       0.79639   0.71817   0.52591   0.09893
H          H       0.90513   0.63745   0.47421   0.09621
H          H       0.86474   0.50847   0.43966   0.10820
H          H       0.93541   0.13361   0.84971   0.11602
H          H       0.74941   0.97519   0.65986   0.11504
H          H       0.71597   0.06360   0.59849   0.10164
H          H       0.79497   0.18602   0.66329   0.10860
H          H       0.90266   0.32367   0.93959   0.13039
H          H       0.70433   0.47899   0.96392   0.12348
H          H       0.79599   0.49111   0.87090   0.13242
H          H       0.92983   0.35605   0.06559   0.13429
H          H       0.90032   0.32706   0.16097   0.11078
H          H       0.59091   0.36475   0.08476   0.10755
H          H       0.61890   0.38916   0.98559   0.11103
H          H       0.27278   0.21952   0.15829   0.12723
H          H       0.44594   0.05151   0.11606   0.12812
H          H       0.26064   0.00208   0.11403   0.12295
H          H       0.47156   0.25556   0.25657   0.12625
H          H       0.61873   0.33708   0.28186   0.12617
H          H       0.62193   0.23386   0.07339   0.09818
H          H       0.47651   0.15030   0.04929   0.11760
H          H       0.95530   0.23365   0.45909   0.11734
H          H       0.19705   0.12496   0.42438   0.13040
H          H       0.10752   0.17214   0.31229   0.14775
H          H       0.93533   0.33186   0.41523   0.13098
H          H       0.81644   0.38629   0.34118   0.11307
H          H       0.81376   0.21996   0.15603   0.10159
H          H       0.93279   0.16401   0.23120   0.11524
H          H       0.88446   0.67510   0.35074   0.11971
H          H       0.65075   0.78419   0.39746   0.12864
H          H       0.57601   0.64392   0.32829   0.12980
H          H       0.88702   0.56706   0.31333   0.12752
H          H       0.88328   0.44187   0.26035   0.11095
H          H       0.56375   0.41458   0.21588   0.11042
H          H       0.56627   0.54020   0.26861   0.12338
H          H       0.10068   0.95624   0.49242   0.13284
H          H       0.27360   0.78283   0.47563   0.09846
H          H       0.43235   0.86498   0.52640   0.09623
H          H       0.42298   0.99377   0.56050   0.10812
C          C       0.88737   0.74206   0.80156   0.55098
C          C       0.89230   0.66807   0.76075  -0.04665
C          C       0.90817   0.61845   0.79482  -0.12276
C          C       0.91515   0.54911   0.75899  -0.04505
C          C       0.93473   0.49802   0.79746   0.54307
C          C       0.90539   0.52909   0.68786  -0.09344
C          C       0.89040   0.57843   0.65373  -0.08596
C          C       0.88332   0.64756   0.68983  -0.07833
C          C       0.07183   0.86811   0.93395   0.09406
C          C       0.18703   0.94847   0.94349  -0.12536
C          C       0.09542   0.95413   0.89812  -0.02155
C          C       0.24292   0.87340   0.01920   0.14366
C          C       0.21308   0.85481   0.06772  -0.15030
C          C       0.28492   0.83933   0.12249  -0.11678
C          C       0.38683   0.84323   0.13027   0.05876
C          C       0.41506   0.86120   0.08018  -0.12452
C          C       0.34417   0.87579   0.02480  -0.17812
C          C       0.47060   0.84043   0.19694   0.01610
C          C       0.85258   0.66680   0.14712   0.09854
C          C       0.74095   0.57721   0.12264  -0.12667
C          C       0.83158   0.55376   0.12230  -0.02365
C          C       0.68558   0.69769   0.15164   0.14798
C          C       0.71261   0.75119   0.21652  -0.15667
C          C       0.64407   0.79771   0.23039  -0.10714
C          C       0.54921   0.79298   0.17915   0.06087
C          C       0.52390   0.73895   0.11440  -0.13592
C          C       0.59113   0.69123   0.10041  -0.17280
C          C       0.42673   0.71000   0.43505   0.07236
C          C       0.28202   0.65338   0.41394  -0.01736
C          C       0.26983   0.67599   0.35822  -0.09145
C          C       0.38584   0.74468   0.32857   0.15761
C          C       0.44927   0.80732   0.35907  -0.14993
C          C       0.47350   0.83869   0.31633  -0.11342
C          C       0.43427   0.80919   0.24303   0.05046
C          C       0.37127   0.74581   0.21330  -0.12212
C          C       0.34675   0.71369   0.25536  -0.16336
C          C       0.54245   0.18606   0.35379   0.08127
C          C       0.69008   0.24004   0.37671  -0.02110
C          C       0.69209   0.17128   0.34221  -0.09918
C          C       0.56842   0.06378   0.29562   0.16086
C          C       0.47653   0.03495   0.29254  -0.17138
C          C       0.44918   0.96339   0.26273  -0.10685
C          C       0.51170   0.91822   0.23546   0.05373
C          C       0.60242   0.94781   0.23809  -0.12843
C          C       0.63093   0.01975   0.26791  -0.16954
C          C       0.29264   0.55963   0.54886   0.55703
C          C       0.26655   0.48266   0.52992  -0.04542
C          C       0.32516   0.43664   0.49977  -0.10536
C          C       0.30148   0.36445   0.47850  -0.04002
C          C       0.36690   0.31680   0.44671   0.56498
C          C       0.21917   0.33800   0.48925  -0.09969
C          C       0.15929   0.38360   0.51836  -0.11083
C          C       0.18214   0.45578   0.53829  -0.10261
C          C       0.08427   0.75830   0.19861   0.55024
C          C       0.13032   0.83224   0.23928  -0.04672
C          C       0.11287   0.88193   0.20522  -0.12341
C          C       0.15631   0.95113   0.24127  -0.04541
C          C       0.13774   0.00291   0.20361   0.54178
C          C       0.21781   0.97074   0.31246  -0.09195
C          C       0.23624   0.92134   0.34651  -0.08511
C          C       0.19219   0.85247   0.31027  -0.07761
C          C       0.13793   0.63218   0.06591   0.09479
C          C       0.24406   0.55190   0.05674  -0.12687
C          C       0.19785   0.54623   0.10196  -0.02044
C          C       0.22412   0.62706   0.98116   0.14497
C          C       0.14572   0.64583   0.93257  -0.14960
C          C       0.16284   0.66125   0.87793  -0.11725
C          C       0.25708   0.65725   0.87039   0.05855
C          C       0.33548   0.63923   0.92062  -0.12377
C          C       0.31993   0.62462   0.97585  -0.17990
C          C       0.27412   0.65988   0.80381   0.01679
C          C       0.70564   0.83280   0.85252   0.09732
C          C       0.61831   0.92235   0.87745  -0.12799
C          C       0.70899   0.94587   0.87758  -0.02457
C          C       0.53442   0.80193   0.84857   0.14952
C          C       0.49587   0.74852   0.78364  -0.15820
C          C       0.41347   0.70223   0.77003  -0.10668
C          C       0.37055   0.70712   0.82149   0.06057
C          C       0.41065   0.76102   0.88626  -0.13469
C          C       0.49193   0.80851   0.90005  -0.17510
C          C       0.99118   0.78953   0.56525   0.07205
C          C       0.86787   0.84685   0.58622  -0.01822
C          C       0.91195   0.82477   0.64230  -0.09405
C          C       0.05761   0.75569   0.67201   0.15684
C          C       0.09045   0.69298   0.64150  -0.15173
C          C       0.15744   0.66150   0.68429  -0.11277
C          C       0.19161   0.69108   0.75758   0.04914
C          C       0.15855   0.75457   0.78727  -0.12456
C          C       0.09188   0.78676   0.74516  -0.16071
C          C       0.18952   0.31477   0.64697   0.08002
C          C       0.31398   0.26062   0.62366  -0.02194
C          C       0.35061   0.32935   0.65815  -0.09834
C          C       0.27350   0.43681   0.70501   0.15972
C          C       0.18447   0.46557   0.70786  -0.16893
C          C       0.18673   0.53707   0.73782  -0.10919
C          C       0.27664   0.58213   0.76538   0.05597
C          C       0.36491   0.55260   0.76291  -0.12895
C          C       0.36379   0.48072   0.73300  -0.17034
C          C       0.74645   0.93989   0.45148   0.55694
C          C       0.73867   0.01685   0.46999  -0.04356
C          C       0.82669   0.06366   0.49982  -0.10502
C          C       0.82251   0.13577   0.52037  -0.04004
C          C       0.91881   0.18449   0.55135   0.56530
C          C       0.72845   0.16114   0.50962  -0.09891
C          C       0.64028   0.11478   0.48092  -0.10976
C          C       0.64506   0.04279   0.46137  -0.10487
C          C       0.11263   0.25794   0.19844   0.55104
C          C       0.10770   0.33192   0.23926  -0.04645
C          C       0.09183   0.38154   0.20518  -0.12312
C          C       0.08485   0.45089   0.24101  -0.04506
C          C       0.06528   0.50197   0.20254   0.54331
C          C       0.09461   0.47091   0.31214  -0.09346
C          C       0.10960   0.42156   0.34627  -0.08600
C          C       0.11668   0.35244   0.31017  -0.07832
C          C       0.92817   0.13189   0.06605   0.09381
C          C       0.81297   0.05153   0.05652  -0.12537
C          C       0.90458   0.04587   0.10188  -0.02128
C          C       0.75708   0.12659   0.98080   0.14363
C          C       0.78692   0.14519   0.93228  -0.15036
C          C       0.71508   0.16067   0.87752  -0.11684
C          C       0.61317   0.15676   0.86973   0.05872
C          C       0.58495   0.13879   0.91982  -0.12456
C          C       0.65583   0.12421   0.97520  -0.17807
C          C       0.52940   0.15956   0.80306   0.01597
C          C       0.14742   0.33320   0.85288   0.09897
C          C       0.25906   0.42279   0.87736  -0.12685
C          C       0.16842   0.44624   0.87770  -0.02385
C          C       0.31442   0.30230   0.84836   0.14808
C          C       0.28739   0.24881   0.78348  -0.15680
C          C       0.35593   0.20228   0.76961  -0.10716
C          C       0.45079   0.20702   0.82085   0.06111
C          C       0.47611   0.26104   0.88560  -0.13607
C          C       0.40887   0.30877   0.89959  -0.17293
C          C       0.57327   0.29000   0.56495   0.07239
C          C       0.71798   0.34661   0.58607  -0.01758
C          C       0.73017   0.32400   0.64178  -0.09114
C          C       0.61416   0.25531   0.67143   0.15763
C          C       0.55073   0.19267   0.64093  -0.14991
C          C       0.52650   0.16131   0.68367  -0.11334
C          C       0.56573   0.19080   0.75697   0.05046
C          C       0.62873   0.25419   0.78670  -0.12213
C          C       0.65325   0.28630   0.74464  -0.16349
C          C       0.45755   0.81394   0.64621   0.08112
C          C       0.30992   0.75995   0.62329  -0.02077
C          C       0.30791   0.82872   0.65779  -0.09921
C          C       0.43158   0.93622   0.70438   0.16075
C          C       0.52347   0.96505   0.70747  -0.17120
C          C       0.55083   0.03660   0.73727  -0.10692
C          C       0.48830   0.08177   0.76455   0.05364
C          C       0.39758   0.05219   0.76191  -0.12827
C          C       0.36907   0.98024   0.73209  -0.16966
C          C       0.70736   0.44036   0.45114   0.55713
C          C       0.73345   0.51734   0.47008  -0.04564
C          C       0.67484   0.56336   0.50023  -0.10524
C          C       0.69852   0.63555   0.52150  -0.04001
C          C       0.63310   0.68319   0.55330   0.56513
C          C       0.78083   0.66200   0.51076  -0.09972
C          C       0.84071   0.61640   0.48164  -0.11094
C          C       0.81786   0.54422   0.46171  -0.10255
C          C       0.91573   0.24169   0.80139   0.55017
C          C       0.86968   0.16776   0.76072  -0.04670
C          C       0.88713   0.11806   0.79478  -0.12339
C          C       0.84370   0.04886   0.75873  -0.04543
C          C       0.86226   0.99709   0.79640   0.54133
C          C       0.78219   0.02925   0.68754  -0.09162
C          C       0.76376   0.07865   0.65349  -0.08532
C          C       0.80781   0.14753   0.68973  -0.07763
C          C       0.86207   0.36781   0.93410   0.09508
C          C       0.75594   0.44809   0.94326  -0.12724
C          C       0.80215   0.45376   0.89804  -0.02049
C          C       0.77588   0.37294   0.01884   0.14505
C          C       0.85428   0.35416   0.06743  -0.14954
C          C       0.83716   0.33875   0.12208  -0.11716
C          C       0.74292   0.34275   0.12961   0.05859
C          C       0.66452   0.36077   0.07938  -0.12386
C          C       0.68007   0.37538   0.02415  -0.18000
C          C       0.72588   0.34011   0.19619   0.01688
C          C       0.29436   0.16719   0.14748   0.09710
C          C       0.38169   0.07764   0.12255  -0.12804
C          C       0.29101   0.05412   0.12242  -0.02449
C          C       0.46558   0.19807   0.15144   0.14937
C          C       0.50413   0.25148   0.21636  -0.15815
C          C       0.58653   0.29777   0.22997  -0.10680
C          C       0.62945   0.29288   0.17851   0.06051
C          C       0.58935   0.23897   0.11375  -0.13464
C          C       0.50807   0.19149   0.09995  -0.17499
C          C       0.00882   0.21047   0.43475   0.07217
C          C       0.13213   0.15315   0.41379  -0.01826
C          C       0.08805   0.17523   0.35770  -0.09400
C          C       0.94239   0.24430   0.32800   0.15690
C          C       0.90955   0.30702   0.35850  -0.15173
C          C       0.84256   0.33850   0.31571  -0.11286
C          C       0.80839   0.30892   0.24243   0.04912
C          C       0.84146   0.24542   0.21273  -0.12445
C          C       0.90812   0.21323   0.25484  -0.16075
C          C       0.81048   0.68522   0.35303   0.07652
C          C       0.68602   0.73938   0.37634  -0.02255
C          C       0.64939   0.67064   0.34185  -0.10185
C          C       0.72650   0.56318   0.29499   0.15585
C          C       0.81553   0.53442   0.29214  -0.16938
C          C       0.81327   0.46293   0.26218  -0.10889
C          C       0.72336   0.41787   0.23462   0.05596
C          C       0.63509   0.44739   0.23709  -0.12888
C          C       0.63621   0.51928   0.26700  -0.17067
C          C       0.25355   0.06010   0.54852   0.55704
C          C       0.26133   0.98315   0.53001  -0.04352
C          C       0.17331   0.93633   0.50018  -0.10505
C          C       0.17749   0.86423   0.47963  -0.04004
C          C       0.08120   0.81551   0.44866   0.56512
C          C       0.27155   0.83886   0.49039  -0.09876
C          C       0.35972   0.88522   0.51908  -0.10991
C          C       0.35494   0.95721   0.53863  -0.10488
N          N       0.02448   0.90359   0.89227  -0.29254
N          N       0.17123   0.89391   0.96637   0.04687
N          N       0.90028   0.60997   0.13736  -0.29613
N          N       0.75536   0.64923   0.13874   0.01547
N          N       0.37986   0.67465   0.46138  -0.31130
N          N       0.36199   0.71180   0.37198   0.01745
N          N       0.59643   0.24858   0.38350  -0.31360
N          N       0.59823   0.13684   0.32747   0.02286
N          N       0.13248   0.59679   0.10765  -0.29487
N          N       0.20510   0.60643   0.03375   0.04802
N          N       0.76271   0.88970   0.86218  -0.29617
N          N       0.61691   0.85033   0.86122   0.01785
N          N       0.91771   0.82474   0.53864  -0.31156
N          N       0.99015   0.78857   0.62858   0.01976
N          N       0.21365   0.25225   0.61709  -0.31319
N          N       0.27160   0.36383   0.67310   0.02294
N          N       0.97552   0.09640   0.10773  -0.29249
N          N       0.82877   0.10609   0.03363   0.04698
N          N       0.09972   0.39002   0.86264  -0.29623
N          N       0.24464   0.35077   0.86126   0.01557
N          N       0.62014   0.32535   0.53862  -0.31160
N          N       0.63801   0.28820   0.62802   0.01746
N          N       0.40357   0.75142   0.61651  -0.31347
N          N       0.40177   0.86315   0.67253   0.02279
N          N       0.86752   0.40321   0.89236  -0.29496
N          N       0.79490   0.39357   0.96625   0.04818
N          N       0.23729   0.11030   0.13782  -0.29610
N          N       0.38309   0.14967   0.13878   0.01801
N          N       0.08229   0.17526   0.46136  -0.31139
N          N       0.00985   0.21143   0.37142   0.01951
N          N       0.78635   0.74774   0.38291  -0.31374
N          N       0.72840   0.63616   0.32690   0.03552
O          O       0.87077   0.78603   0.76734  -0.56224
O          O       0.89929   0.75936   0.86582  -0.56816
O          O       0.91395   0.43212   0.75985  -0.55321
O          O       0.97014   0.51844   0.86367  -0.55538
O          O       0.38517   0.57717   0.55599  -0.55993
O          O       0.22832   0.60093   0.55551  -0.55674
O          O       0.42448   0.34772   0.42518  -0.57151
O          O       0.36661   0.25462   0.44433  -0.55767
O          O       0.10014   0.71464   0.23325  -0.56149
O          O       0.03323   0.74060   0.13404  -0.56707
O          O       0.15675   0.06857   0.24179  -0.55034
O          O       0.10497   0.98376   0.13737  -0.55462
O          O       0.83195   0.92228   0.44465  -0.55898
O          O       0.67554   0.89867   0.44495  -0.55957
O          O      -0.00082   0.15506   0.57444  -0.57088
O          O       0.91903   0.24609   0.55185  -0.55735
O          O       0.12923   0.21397   0.23266  -0.56211
O          O       0.10071   0.24063   0.13418  -0.56834
O          O       0.08605   0.56787   0.24015  -0.55332
O          O       0.02986   0.48156   0.13633  -0.55552
O          O       0.61483   0.42283   0.44402  -0.56007
O          O       0.77168   0.39907   0.44449  -0.55652
O          O       0.57553   0.65228   0.57482  -0.57132
O          O       0.63340   0.74537   0.55567  -0.55806
O          O       0.89986   0.28536   0.76676  -0.56172
O          O       0.96677   0.25939   0.86596  -0.56686
O          O       0.84325   0.93143   0.75821  -0.55011
O          O       0.89503   0.01623   0.86263  -0.55437
O          O       0.16805   0.07772   0.55536  -0.55893
O          O       0.32446   0.10132   0.55505  -0.55981
O          O       0.00082   0.84493   0.42556  -0.57111
O          O       0.08097   0.75390   0.44815  -0.55696

