data_crystal

_audit_creation_method 'AiiDA-DDEC plugin'

_cell_length_a        27.89716
_cell_length_b        27.89560
_cell_length_c        27.89582

_cell_angle_alpha     89.99954
_cell_angle_beta     90.00000
_cell_angle_gamma     90.00000

_symmetry_space_group_name_Hall 'P 1'
_symmetry_space_group_name_H-M  'P 1'

loop_
_symmetry_equiv_pos_as_xyz
 'x,y,z'

loop_
_atom_site_label
_atom_site_type_symbol
_atom_site_fract_x
_atom_site_fract_y
_atom_site_fract_z
_atom_site_charge
Zn         Zn     -0.00001   0.49988   0.70098   0.81599
Zn         Zn     -0.00001   0.50012   0.29901   0.81604
Zn         Zn      0.70099  -0.00000   0.50000   0.81574
Zn         Zn      0.29901  -0.00000   0.50000   0.81478
Zn         Zn      0.49998   0.70099  -0.00033   0.81510
Zn         Zn      0.49998   0.29901   0.00033   0.81526
Zn         Zn      0.00001   0.49966   0.79901   0.81554
Zn         Zn      0.00001   0.50034   0.20099   0.81536
Zn         Zn      0.50003   0.20098   0.00011   0.81594
Zn         Zn      0.50003   0.79901  -0.00011   0.81590
Zn         Zn      0.20099  -0.00000   0.50000   0.81494
Zn         Zn      0.79901  -0.00000   0.50000   0.81563
H          H       0.10808   0.39084   0.82603   0.11095
H          H       0.17098   0.32765   0.82678   0.10831
H          H       0.02365   0.57011   0.62419   0.12080
H          H       0.02518   0.57326   0.53419   0.12859
H          H       0.89193   0.60909   0.82604   0.11064
H          H       0.82905   0.67229   0.82675   0.10829
H          H       0.97635   0.42982   0.62414   0.12094
H          H       0.97483   0.42672   0.53415   0.12891
H          H       0.89193   0.39091   0.17396   0.11097
H          H       0.82905   0.32771   0.17324   0.10851
H          H       0.97635   0.57018   0.37585   0.12097
H          H       0.97483   0.57327   0.46584   0.12877
H          H       0.10808   0.60916   0.17396   0.11116
H          H       0.17098   0.67235   0.17322   0.10842
H          H       0.02365   0.42988   0.37581   0.12098
H          H       0.02518   0.42674   0.46581   0.12861
H          H       0.82735   0.10865   0.39088   0.11558
H          H       0.82747   0.17120   0.32727   0.10889
H          H       0.82735   0.89135   0.60911   0.11563
H          H       0.82747   0.82880   0.67273   0.10885
H          H       0.17269   0.89137   0.39086   0.11564
H          H       0.17256   0.82883   0.32725   0.10875
H          H       0.17269   0.10863   0.60913   0.11575
H          H       0.17256   0.17117   0.67275   0.10861
H          H       0.39080   0.82604   0.10820   0.11083
H          H       0.32762   0.82678   0.17108   0.10804
H          H       0.57014   0.62418   0.02362   0.12069
H          H       0.57327   0.53419   0.02517   0.12865
H          H       0.60923   0.82604   0.89173   0.11092
H          H       0.67243   0.82677   0.82884   0.10825
H          H       0.42985   0.62415   0.97633   0.12055
H          H       0.42674   0.53416   0.97482   0.12887
H          H       0.39080   0.17396   0.89180   0.11082
H          H       0.32762   0.17321   0.82892   0.10833
H          H       0.57014   0.37582   0.97638   0.12085
H          H       0.57327   0.46581   0.97483   0.12875
H          H       0.60923   0.17395   0.10827   0.11118
H          H       0.67243   0.17323   0.17115   0.10830
H          H       0.42985   0.37585   0.02367   0.12064
H          H       0.42674   0.46583   0.02517   0.12870
H          H       0.89113   0.60873   0.67255   0.11533
H          H       0.82750   0.67130   0.67245   0.10873
H          H       0.10891   0.39119   0.67255   0.11537
H          H       0.17255   0.32862   0.67247   0.10897
H          H       0.89113   0.39127   0.32744   0.11506
H          H       0.82750   0.32870   0.32754   0.10848
H          H       0.10891   0.60880   0.32744   0.11521
H          H       0.17255   0.67137   0.32753   0.10867
H          H       0.60894   0.32743   0.10900   0.11543
H          H       0.67149   0.32755   0.17262   0.10871
H          H       0.39108   0.32743   0.89105   0.11488
H          H       0.32853   0.32753   0.82742   0.10823
H          H       0.39108   0.67256   0.10895   0.11502
H          H       0.32853   0.67247   0.17257   0.10829
H          H       0.60894   0.67257   0.89099   0.11544
H          H       0.67149   0.67245   0.82738   0.10893
H          H       0.32616   0.89104   0.39163   0.11329
H          H       0.32686   0.82783   0.32874   0.10873
H          H       0.32616   0.10896   0.60836   0.11126
H          H       0.32686   0.17216   0.67126   0.10848
H          H       0.67387   0.89100   0.60832   0.11332
H          H       0.67317   0.82779   0.67122   0.10817
H          H       0.87584   0.07003   0.52399   0.12079
H          H       0.96583   0.07314   0.52554   0.12907
H          H       0.67387   0.10900   0.39167   0.11330
H          H       0.67317   0.17221   0.32878   0.10822
H          H       0.87584   0.92997   0.47600   0.12091
H          H       0.96583   0.92686   0.47446   0.12924
H          H       0.89106   0.60900   0.17257   0.11556
H          H       0.82850   0.67261   0.17245   0.10883
H          H       0.10892   0.39105   0.17256   0.11506
H          H       0.17147   0.32743   0.17247   0.10833
H          H       0.10892   0.60894   0.82743   0.11485
H          H       0.17147   0.67257   0.82753   0.10810
H          H       0.89106   0.39100   0.82742   0.11532
H          H       0.82850   0.32738   0.82755   0.10862
H          H       0.17384   0.89163   0.60895   0.11337
H          H       0.17314   0.82873   0.67216   0.10858
H          H       0.37582   0.97676   0.42972   0.12083
H          H       0.46581   0.97525   0.42659   0.12923
H          H       0.17384   0.10837   0.39104   0.11340
H          H       0.17314   0.17127   0.32784   0.10858
H          H       0.37582   0.02324   0.57028   0.12074
H          H       0.46581   0.02475   0.57341   0.12887
H          H       0.82612   0.10832   0.60901   0.11340
H          H       0.82682   0.17121   0.67222   0.10819
H          H       0.62416   0.02399   0.42997   0.12100
H          H       0.53417   0.02553   0.42686   0.12903
H          H       0.82612   0.89168   0.39098   0.11109
H          H       0.82682   0.82879   0.32778   0.10830
H          H       0.62416   0.97601   0.57003   0.12088
H          H       0.53417   0.97447   0.57314   0.12903
H          H       0.60888   0.17256   0.89126   0.11518
H          H       0.67250   0.17246   0.82869   0.10875
H          H       0.39109   0.17255   0.10880   0.11524
H          H       0.32745   0.17247   0.17137   0.10883
H          H       0.60888   0.82744   0.10873   0.11512
H          H       0.67250   0.82754   0.17131   0.10856
H          H       0.39109   0.82745   0.89119   0.11509
H          H       0.32745   0.82753   0.82862   0.10873
H          H       0.10920   0.39180   0.32604   0.11100
H          H       0.17238   0.32892   0.32678   0.10801
H          H       0.92986   0.47638   0.12418   0.12060
H          H       0.92673   0.47483   0.03419   0.12862
H          H       0.89078   0.60828   0.32605   0.11111
H          H       0.82758   0.67116   0.32677   0.10822
H          H       0.07015   0.52367   0.12415   0.12067
H          H       0.07326   0.52518   0.03417   0.12875
H          H       0.10920   0.60819   0.67396   0.11095
H          H       0.17238   0.67107   0.67322   0.10817
H          H       0.92986   0.52362   0.87582   0.12072
H          H       0.92673   0.52517   0.96581   0.12838
H          H       0.89078   0.39172   0.67395   0.11130
H          H       0.82758   0.32884   0.67323   0.10842
H          H       0.07015   0.47633   0.87584   0.12110
H          H       0.07326   0.47482   0.96583   0.12866
H          H       0.39192   0.67396   0.89084   0.11112
H          H       0.32902   0.67322   0.82765   0.10860
H          H       0.47635   0.87581   0.07012   0.12098
H          H       0.47483   0.96581   0.07326   0.12866
H          H       0.60807   0.67395   0.10910   0.11101
H          H       0.67095   0.67324   0.17230   0.10857
H          H       0.52366   0.87585   0.92982   0.12111
H          H       0.52519   0.96584   0.92672   0.12907
H          H       0.60807   0.32604   0.89090   0.11073
H          H       0.67095   0.32676   0.82770   0.10851
H          H       0.52366   0.12415   0.07017   0.12092
H          H       0.52519   0.03416   0.07327   0.12883
H          H       0.39192   0.32604   0.10915   0.11106
H          H       0.32902   0.32678   0.17234   0.10838
H          H       0.47635   0.12419   0.92988   0.12105
H          H       0.47483   0.03419   0.92674   0.12890
H          H       0.67265   0.10913   0.60863   0.11560
H          H       0.67252   0.17275   0.67118   0.10870
H          H       0.67265   0.89087   0.39136   0.11542
H          H       0.67252   0.82725   0.32882   0.10884
H          H       0.32731   0.10913   0.39137   0.11568
H          H       0.32744   0.17274   0.32883   0.10877
H          H       0.12417   0.92972   0.52326   0.11566
H          H       0.03418   0.92660   0.52477   0.12911
H          H       0.32731   0.89087   0.60863   0.11575
H          H       0.32744   0.82725   0.67117   0.10876
H          H       0.12417   0.07027   0.47674   0.11563
H          H       0.03418   0.07340   0.47523   0.12902
H          H       0.24989   0.31314   0.81268   0.10813
H          H       0.75013   0.68682   0.81265   0.10766
H          H       0.75013   0.31318   0.18735   0.10780
H          H       0.24989   0.68686   0.18732   0.10836
H          H       0.81304   0.24989   0.31297   0.10713
H          H       0.81304   0.75011   0.68702   0.10738
H          H       0.18699   0.75016   0.31294   0.10727
H          H       0.18699   0.24984   0.68706   0.10740
H          H       0.31281   0.81289   0.24984   0.10750
H          H       0.68722   0.81285   0.75011   0.10721
H          H       0.31281   0.18711   0.75016   0.10752
H          H       0.68722   0.18715   0.24989   0.10732
H          H       0.74987   0.68735   0.18683   0.10782
H          H       0.25012   0.31268   0.18685   0.10834
H          H       0.25012   0.68732   0.81315   0.10829
H          H       0.74987   0.31265   0.81317   0.10750
H          H       0.18720   0.74984   0.68711   0.10756
H          H       0.18720   0.25016   0.31289   0.10739
H          H       0.81278   0.25011   0.68714   0.10745
H          H       0.81278   0.74989   0.31285   0.10732
H          H       0.68695   0.18703   0.74988   0.10726
H          H       0.31302   0.18706   0.25016   0.10732
H          H       0.68695   0.81297   0.25012   0.10712
H          H       0.31302   0.81294   0.74984   0.10730
C          C       0.12268   0.37702   0.79267  -0.09602
C          C       0.15806   0.34186   0.79284  -0.14523
C          C       0.01305   0.53950   0.60240   0.09681
C          C       0.01347   0.54090   0.55256  -0.18077
C          C       0.87735   0.62289   0.79266  -0.09537
C          C       0.84197   0.65807   0.79282  -0.14582
C          C       0.98695   0.46045   0.60238   0.09641
C          C       0.98653   0.45907   0.55253  -0.18118
C          C       0.87735   0.37710   0.20733  -0.09556
C          C       0.84197   0.34193   0.20718  -0.14566
C          C       0.98695   0.53955   0.39762   0.09631
C          C       0.98653   0.54092   0.44747  -0.18140
C          C       0.12268   0.62298   0.20732  -0.09562
C          C       0.15806   0.65814   0.20716  -0.14530
C          C       0.01305   0.46050   0.39759   0.09699
C          C       0.01347   0.45910   0.44744  -0.18077
C          C       0.79381   0.12291   0.37707  -0.09161
C          C       0.79366   0.15817   0.34169  -0.14693
C          C       0.79381   0.87709   0.62292  -0.09149
C          C       0.79366   0.84183   0.65830  -0.14708
C          C       0.20622   0.87711   0.37704  -0.09303
C          C       0.20638   0.84186   0.34167  -0.14633
C          C       0.20622   0.12288   0.62295  -0.09294
C          C       0.20638   0.15814   0.65833  -0.14628
C          C       0.37698   0.79267   0.12277  -0.09623
C          C       0.34180   0.79283   0.15816  -0.14512
C          C       0.53953   0.60240   0.01302   0.09707
C          C       0.54091   0.55255   0.01346  -0.18100
C          C       0.62307   0.79268   0.87715  -0.09725
C          C       0.65824   0.79282   0.84177  -0.14552
C          C       0.46047   0.60238   0.98693   0.09666
C          C       0.45909   0.55254   0.98652  -0.18082
C          C       0.37698   0.20733   0.87723  -0.09617
C          C       0.34180   0.20716   0.84184  -0.14513
C          C       0.53953   0.39760   0.98697   0.09695
C          C       0.54091   0.44744   0.98653  -0.18114
C          C       0.62307   0.20732   0.12285  -0.09720
C          C       0.65824   0.20717   0.15823  -0.14544
C          C       0.46047   0.39761   0.01307   0.09653
C          C       0.45909   0.44746   0.01347  -0.18087
C          C       0.87734   0.62300   0.70610  -0.09104
C          C       0.84195   0.65826   0.70626  -0.14647
C          C       0.12271   0.37692   0.70609  -0.09112
C          C       0.15810   0.34167   0.70627  -0.14645
C          C       0.87734   0.37700   0.29390  -0.09114
C          C       0.84195   0.34174   0.29374  -0.14644
C          C       0.12271   0.62308   0.29391  -0.09111
C          C       0.15810   0.65833   0.29373  -0.14640
C          C       0.62319   0.29389   0.12282  -0.09154
C          C       0.65845   0.29373   0.15821  -0.14702
C          C       0.37683   0.29388   0.87725  -0.09224
C          C       0.34158   0.29371   0.84184  -0.14592
C          C       0.37683   0.70611   0.12275  -0.09205
C          C       0.34158   0.70629   0.15815  -0.14602
C          C       0.62319   0.70611   0.87718  -0.09145
C          C       0.65845   0.70627   0.84179  -0.14702
C          C       0.29279   0.87723   0.37704  -0.09877
C          C       0.29293   0.84205   0.34166  -0.14605
C          C       0.29279   0.12277   0.62295  -0.09696
C          C       0.29293   0.15795   0.65833  -0.14571
C          C       0.70724   0.87719   0.62292  -0.09877
C          C       0.70710   0.84201   0.65830  -0.14548
C          C       0.89762   0.03946   0.51324   0.09677
C          C       0.94746   0.04084   0.51367  -0.18180
C          C       0.70724   0.12281   0.37708  -0.09881
C          C       0.70710   0.15799   0.34170  -0.14554
C          C       0.89762   0.96054   0.48676   0.09702
C          C       0.94746   0.95915   0.48632  -0.18162
C          C       0.87680   0.62281   0.20612  -0.09149
C          C       0.84155   0.65820   0.20627  -0.14725
C          C       0.12316   0.37725   0.20611  -0.09216
C          C       0.15842   0.34185   0.20628  -0.14586
C          C       0.12316   0.62275   0.79388  -0.09211
C          C       0.15842   0.65815   0.79371  -0.14600
C          C       0.87680   0.37718   0.79388  -0.09166
C          C       0.84155   0.34180   0.79373  -0.14714
C          C       0.20721   0.87704   0.62276  -0.09898
C          C       0.20707   0.84166   0.65794  -0.14578
C          C       0.39760   0.98718   0.46040   0.09726
C          C       0.44745   0.98677   0.45901  -0.18183
C          C       0.20721   0.12296   0.37723  -0.09915
C          C       0.20707   0.15834   0.34205  -0.14571
C          C       0.39760   0.01282   0.53960   0.09644
C          C       0.44745   0.01323   0.54099  -0.18156
C          C       0.79275   0.12292   0.62281  -0.09854
C          C       0.79290   0.15830   0.65799  -0.14553
C          C       0.60238   0.01324   0.46053   0.09691
C          C       0.55254   0.01367   0.45915  -0.18150
C          C       0.79275   0.87708   0.37718  -0.09682
C          C       0.79290   0.84170   0.34200  -0.14532
C          C       0.60238   0.98676   0.53946   0.09678
C          C       0.55254   0.98633   0.54084  -0.18174
C          C       0.62267   0.20610   0.87699  -0.09092
C          C       0.65805   0.20626   0.84173  -0.14642
C          C       0.37729   0.20609   0.12307  -0.09119
C          C       0.34190   0.20627   0.15832  -0.14642
C          C       0.62267   0.79390   0.12300  -0.09106
C          C       0.65805   0.79373   0.15826  -0.14647
C          C       0.37729   0.79391   0.87692  -0.09127
C          C       0.34190   0.79373   0.84167  -0.14647
C          C       0.12302   0.37723   0.29266  -0.09667
C          C       0.15820   0.34184   0.29283  -0.14500
C          C       0.96047   0.48698   0.10240   0.09699
C          C       0.95909   0.48654   0.05255  -0.18105
C          C       0.87694   0.62285   0.29268  -0.09729
C          C       0.84176   0.65823   0.29283  -0.14550
C          C       0.03953   0.51307   0.10239   0.09654
C          C       0.04091   0.51348   0.05254  -0.18075
C          C       0.12302   0.62277   0.70733  -0.09618
C          C       0.15820   0.65815   0.70717  -0.14496
C          C       0.96047   0.51302   0.89760   0.09693
C          C       0.95909   0.51346   0.94744  -0.18091
C          C       0.87694   0.37715   0.70731  -0.09741
C          C       0.84176   0.34177   0.70717  -0.14523
C          C       0.03953   0.48693   0.89761   0.09627
C          C       0.04091   0.48652   0.94746  -0.18065
C          C       0.37732   0.70733   0.87703  -0.09556
C          C       0.34194   0.70716   0.84186  -0.14538
C          C       0.48696   0.89760   0.03950   0.09645
C          C       0.48654   0.94744   0.04090  -0.18098
C          C       0.62265   0.70733   0.12290  -0.09568
C          C       0.65803   0.70717   0.15808  -0.14573
C          C       0.51306   0.89762   0.96045   0.09684
C          C       0.51348   0.94746   0.95907  -0.18168
C          C       0.62265   0.29267   0.87710  -0.09552
C          C       0.65803   0.29283   0.84192  -0.14575
C          C       0.51306   0.10238   0.03955   0.09644
C          C       0.51348   0.05253   0.04092  -0.18124
C          C       0.37732   0.29267   0.12297  -0.09580
C          C       0.34194   0.29284   0.15813  -0.14537
C          C       0.48696   0.10240   0.96049   0.09674
C          C       0.48654   0.05255   0.95910  -0.18102
C          C       0.70618   0.12294   0.62290  -0.09161
C          C       0.70634   0.15832   0.65816  -0.14719
C          C       0.70618   0.87706   0.37709  -0.09173
C          C       0.70634   0.84168   0.34184  -0.14701
C          C       0.29378   0.12295   0.37711  -0.09290
C          C       0.29363   0.15833   0.34186  -0.14635
C          C       0.10240   0.96040   0.51283   0.10078
C          C       0.05255   0.95901   0.51324  -0.18145
C          C       0.29378   0.87705   0.62289  -0.09295
C          C       0.29363   0.84167   0.65814  -0.14624
C          C       0.10240   0.03960   0.48717   0.10063
C          C       0.05255   0.04099   0.48675  -0.18135
C          C       0.00000   0.49999   0.52650   0.09935
C          C       0.00000   0.50001   0.47350   0.09932
C          C       0.52649  -0.00000   0.50000   0.09946
C          C       0.47349  -0.00000   0.50000   0.10031
C          C       0.50001   0.52650  -0.00000   0.09928
C          C       0.50001   0.47350   0.00000   0.09918
C          C      -0.00000   0.49999   0.97350   0.09886
C          C      -0.00000   0.50000   0.02650   0.09925
C          C       0.50001   0.02650   0.00001   0.09950
C          C       0.50001   0.97350  -0.00001   0.09927
C          C       0.02650  -0.00000   0.50000   0.10032
C          C       0.97351  -0.00000   0.50000   0.09955
C          C       0.06642   0.43282   0.74986   0.58490
C          C       0.10456   0.39502   0.74938  -0.04023
C          C       0.17649   0.32344   0.74961   0.07258
C          C       0.21407   0.28591   0.74981   0.07258
C          C       0.93364   0.56705   0.74984   0.58488
C          C       0.89548   0.60488   0.74938  -0.04008
C          C       0.82354   0.67650   0.74960   0.07221
C          C       0.78596   0.71404   0.74978   0.07215
C          C       0.93364   0.43295   0.25015   0.58500
C          C       0.89548   0.39512   0.25062  -0.04013
C          C       0.82354   0.32350   0.25040   0.07240
C          C       0.78596   0.28596   0.25022   0.07205
C          C       0.06642   0.56717   0.25014   0.58498
C          C       0.10456   0.60498   0.25062  -0.04057
C          C       0.17649   0.67656   0.25038   0.07263
C          C       0.21407   0.71409   0.25019   0.07250
C          C       0.75015   0.06700   0.43334   0.58490
C          C       0.75053   0.10481   0.39521  -0.03902
C          C       0.75032   0.17643   0.32329   0.07293
C          C       0.75019   0.21406   0.28578   0.07206
C          C       0.75015   0.93300   0.56666   0.58489
C          C       0.75053   0.89519   0.60479  -0.03907
C          C       0.75032   0.82357   0.67671   0.07298
C          C       0.75019   0.78594   0.71422   0.07197
C          C       0.24984   0.93305   0.43327   0.58412
C          C       0.24951   0.89523   0.39517  -0.03769
C          C       0.24971   0.82361   0.32325   0.07298
C          C       0.24984   0.78599   0.28574   0.07188
C          C       0.24984   0.06695   0.56672   0.58406
C          C       0.24951   0.10477   0.60483  -0.03764
C          C       0.24971   0.17639   0.67675   0.07266
C          C       0.24984   0.21401   0.71426   0.07197
C          C       0.43284   0.74987   0.06644   0.58452
C          C       0.39498   0.74939   0.10460  -0.03926
C          C       0.32334   0.74962   0.17659   0.07231
C          C       0.28579   0.74981   0.21419   0.07243
C          C       0.56719   0.74987   0.93337   0.58520
C          C       0.60507   0.74941   0.89530  -0.03907
C          C       0.67669   0.74960   0.82335   0.07316
C          C       0.71424   0.74978   0.78576   0.07196
C          C       0.43284   0.25013   0.93356   0.58468
C          C       0.39498   0.25061   0.89539  -0.03929
C          C       0.32334   0.25038   0.82341   0.07232
C          C       0.28579   0.25019   0.78580   0.07224
C          C       0.56719   0.25013   0.06663   0.58491
C          C       0.60507   0.25059   0.10470  -0.03915
C          C       0.67669   0.25040   0.17664   0.07319
C          C       0.71424   0.25022   0.21424   0.07195
C          C       0.93281   0.56663   0.24987   0.58482
C          C       0.89493   0.60470   0.24941  -0.03907
C          C       0.82331   0.67664   0.24960   0.07330
C          C       0.78576   0.71424   0.24978   0.07191
C          C       0.06716   0.43357   0.24987   0.58459
C          C       0.10502   0.39540   0.24939  -0.03924
C          C       0.17666   0.32341   0.24962   0.07228
C          C       0.21421   0.28581   0.24981   0.07239
C          C       0.06716   0.56643   0.75013   0.58461
C          C       0.10502   0.60460   0.75061  -0.03917
C          C       0.17666   0.67659   0.75038   0.07218
C          C       0.21421   0.71419   0.75019   0.07243
C          C       0.93281   0.43337   0.75013   0.58495
C          C       0.89493   0.39530   0.75059  -0.03892
C          C       0.82331   0.32335   0.75039   0.07310
C          C       0.78576   0.28576   0.75022   0.07196
C          C       0.25016   0.93327   0.56695   0.58396
C          C       0.25049   0.89517   0.60477  -0.03774
C          C       0.25030   0.82325   0.67639   0.07266
C          C       0.25016   0.78574   0.71401   0.07206
C          C       0.25016   0.06672   0.43305   0.58410
C          C       0.25049   0.10483   0.39523  -0.03761
C          C       0.25030   0.17675   0.32361   0.07273
C          C       0.25016   0.21426   0.28599   0.07206
C          C       0.74984   0.06667   0.56700   0.58469
C          C       0.74947   0.10480   0.60481  -0.03893
C          C       0.74967   0.17672   0.67643   0.07297
C          C       0.74980   0.21422   0.71405   0.07199
C          C       0.74984   0.93333   0.43300   0.58513
C          C       0.74947   0.89520   0.39519  -0.03892
C          C       0.74967   0.82328   0.32357   0.07294
C          C       0.74980   0.78578   0.28595   0.07202
C          C       0.56637   0.24984   0.93294   0.58529
C          C       0.60452   0.24938   0.89511  -0.04061
C          C       0.67645   0.24960   0.82349   0.07255
C          C       0.71404   0.24978   0.78595   0.07195
C          C       0.43358   0.24985   0.06717   0.58458
C          C       0.39544   0.24938   0.10497  -0.04008
C          C       0.32351   0.24962   0.17656   0.07263
C          C       0.28593   0.24981   0.21409   0.07261
C          C       0.56637   0.75015   0.06705   0.58503
C          C       0.60452   0.75062   0.10488  -0.04029
C          C       0.67645   0.75040   0.17651   0.07252
C          C       0.71404   0.75022   0.21404   0.07189
C          C       0.43358   0.75014   0.93283   0.58485
C          C       0.39544   0.75062   0.89502  -0.04045
C          C       0.32351   0.75038   0.82344   0.07280
C          C       0.28593   0.75019   0.78591   0.07245
C          C       0.24991   0.28551   0.78518  -0.18807
C          C       0.75012   0.71445   0.78514  -0.18674
C          C       0.75012   0.28555   0.21486  -0.18676
C          C       0.24991   0.71449   0.21482  -0.18784
C          C       0.78548   0.24996   0.28541  -0.18487
C          C       0.78548   0.75004   0.71459  -0.18491
C          C       0.21455   0.75008   0.28537  -0.18548
C          C       0.21455   0.24991   0.71462  -0.18537
C          C       0.28524   0.78532   0.24992  -0.18603
C          C       0.71479   0.78528   0.75003  -0.18590
C          C       0.28524   0.21468   0.75008  -0.18573
C          C       0.71479   0.21472   0.24996  -0.18596
C          C       0.74988   0.71486   0.21445  -0.18660
C          C       0.25009   0.28518   0.21449  -0.18806
C          C       0.25009   0.71482   0.78551  -0.18797
C          C       0.74988   0.28514   0.78554  -0.18666
C          C       0.21477   0.74991   0.71468  -0.18600
C          C       0.21477   0.25008   0.28532  -0.18599
C          C       0.78521   0.25004   0.71471  -0.18576
C          C       0.78521   0.74996   0.28529  -0.18589
C          C       0.71451   0.21460   0.74995  -0.18506
C          C       0.28545   0.21463   0.25008  -0.18547
C          C       0.71451   0.78540   0.25004  -0.18494
C          C       0.28545   0.78537   0.74991  -0.18555
N          N       0.00000   0.49996   0.62685  -0.17982
N          N       0.00000   0.50003   0.37315  -0.17960
N          N       0.62684  -0.00000   0.50000  -0.17978
N          N       0.37314  -0.00000   0.50000  -0.17939
N          N       0.50000   0.62685  -0.00005  -0.17946
N          N       0.50000   0.37314   0.00004  -0.17922
N          N      -0.00000   0.49995   0.87314  -0.17913
N          N      -0.00000   0.50005   0.12686  -0.17924
N          N       0.50000   0.12685   0.00003  -0.17999
N          N       0.50000   0.87315  -0.00004  -0.17970
N          N       0.12686  -0.00000   0.50000  -0.17853
N          N       0.87316  -0.00000   0.50000  -0.17992
O          O       0.05083   0.44742   0.70942  -0.55037
O          O       0.94928   0.55254   0.70939  -0.55069
O          O       0.94928   0.44746   0.29061  -0.55106
O          O       0.05083   0.55258   0.29058  -0.55080
O          O       0.70925   0.05228   0.44769  -0.55755
O          O       0.70925   0.94772   0.55230  -0.55753
O          O       0.29073   0.94777   0.44768  -0.55726
O          O       0.29073   0.05223   0.55232  -0.55697
O          O       0.44748   0.70941   0.05091  -0.55182
O          O       0.55244   0.70934   0.94857  -0.55081
O          O       0.44748   0.29058   0.94908  -0.55210
O          O       0.55244   0.29066   0.05143  -0.55094
O          O       0.94771   0.55221   0.79079  -0.55708
O          O       0.05231   0.44760   0.79082  -0.55622
O          O       0.94771   0.44779   0.20921  -0.55682
O          O       0.05231   0.55239   0.20918  -0.55576
O          O       0.55247   0.20923   0.05229  -0.55706
O          O       0.44759   0.20919   0.94773  -0.55705
O          O       0.44759   0.79081   0.05227  -0.55714
O          O       0.55247   0.79076   0.94771  -0.55748
O          O       0.20929   0.94766   0.44848  -0.55045
O          O       0.20929   0.05233   0.55152  -0.55041
O          O       0.79068   0.94762   0.55137  -0.55084
O          O       0.79068   0.05238   0.44862  -0.55085
O          O       0.94754   0.55229   0.29077  -0.55709
O          O       0.05241   0.44773   0.29081  -0.55727
O          O       0.05241   0.55226   0.70918  -0.55700
O          O       0.94754   0.44771   0.70923  -0.55684
O          O       0.29071   0.94848   0.55233  -0.55036
O          O       0.29071   0.05152   0.44766  -0.55047
O          O       0.70932   0.05141   0.55237  -0.55091
O          O       0.70932   0.94859   0.44763  -0.55113
O          O       0.55229   0.29079   0.94779  -0.55733
O          O       0.44769   0.29082   0.05239  -0.55584
O          O       0.55229   0.70921   0.05221  -0.55700
O          O       0.44769   0.70918   0.94761  -0.55571
O          O       0.05252   0.44911   0.20942  -0.55170
O          O       0.94756   0.55143   0.20934  -0.55076
O          O       0.05252   0.55089   0.79058  -0.55206
O          O       0.94756   0.44857   0.79065  -0.55121
O          O       0.44918   0.79057   0.94742  -0.55078
O          O       0.55074   0.79061   0.05254  -0.55090
O          O       0.55074   0.20939   0.94745  -0.55083
O          O       0.44918   0.20942   0.05258  -0.55051
O          O       0.79075   0.05230   0.55229  -0.55730
O          O       0.79075   0.94770   0.44771  -0.55731
O          O       0.20927   0.05232   0.44777  -0.55677
O          O       0.20927   0.94768   0.55222  -0.55672

