data_crystal

_audit_creation_method 'AiiDA-DDEC plugin'

_cell_length_a        20.53745
_cell_length_b        21.34843
_cell_length_c        22.31176

_cell_angle_alpha     110.49331
_cell_angle_beta     89.97668
_cell_angle_gamma     89.98255

_symmetry_space_group_name_Hall 'P 1'
_symmetry_space_group_name_H-M  'P 1'

loop_
_symmetry_equiv_pos_as_xyz
 'x,y,z'

loop_
_atom_site_label
_atom_site_type_symbol
_atom_site_fract_x
_atom_site_fract_y
_atom_site_fract_z
_atom_site_charge
Zn         Zn      0.33895   0.86196   0.05590   0.62280
Zn         Zn      0.13721   0.39648   0.26063   0.63294
Zn         Zn      0.83868   0.13773   0.44398   0.62296
Zn         Zn      0.63752   0.60365   0.23943   0.63286
Zn         Zn      0.66265   0.13779   0.94357   0.62381
Zn         Zn      0.86274   0.60344   0.73923   0.63176
Zn         Zn      0.16281   0.86255   0.55626   0.62319
Zn         Zn      0.36272   0.39597   0.76031   0.63167
H          H       0.55328   0.69310   0.05636   0.10660
H          H       0.75248   0.66031   0.98360   0.11400
H          H       0.60766   0.74579   0.89343   0.11333
H          H       0.49319   0.80705   0.06737   0.10064
H          H       0.37558   0.76551   0.90320   0.11809
H          H       0.49215   0.69517   0.86903   0.12968
H          H       0.58346   0.63500   0.11322   0.08579
H          H       0.77289   0.62544   0.18324   0.11374
H          H       0.78238   0.66876   0.08109   0.12507
H          H       0.78107   0.60394   0.86773   0.09851
H          H       0.80480   0.74769   0.77881   0.11906
H          H       0.70496   0.78921   0.86843   0.13264
H          H       0.44241   0.99148   0.90959   0.11066
H          H       0.42970   0.01121   0.72177   0.11329
H          H       0.26974   0.92546   0.79191   0.11171
H          H       0.41189   0.90187   0.94533   0.09927
H          H       0.21217   0.89877   0.98904   0.11864
H          H       0.22527   0.94563   0.88814   0.12868
H          H       0.51919   0.06895   0.93164   0.08837
H          H       0.64689   0.08520   0.78981   0.10329
H          H       0.53209   0.02759   0.73118   0.12310
H          H       0.27535   0.86208   0.66869   0.10058
H          H       0.24440   0.00957   0.58626   0.11570
H          H       0.32456   0.06189   0.69354   0.13145
H          H       0.19684   0.64682   0.16664   0.11420
H          H       0.32931   0.57245   0.27809   0.11002
H          H       0.40270   0.69615   0.17545   0.10448
H          H       0.36545   0.78039   0.14828   0.09427
H          H       0.21803   0.75031   0.00951   0.11717
H          H       0.20201   0.65758   0.06914   0.12873
H          H       0.25842   0.48681   0.25076   0.08992
H          H       0.05632   0.52668   0.26116   0.11526
H          H       0.12041   0.62829   0.23506   0.12437
H          H       0.49399   0.62555   0.17406   0.10106
H          H       0.54710   0.62215   0.35581   0.11910
H          H       0.41252   0.63345   0.35079   0.13313
H          H       0.05299   0.30759   0.44399   0.10741
H          H       0.25237   0.33961   0.51642   0.11427
H          H       0.10722   0.25414   0.60633   0.11261
H          H       0.99293   0.19319   0.43262   0.10101
H          H       0.87555   0.23503   0.59718   0.11813
H          H       0.99228   0.30499   0.63087   0.12910
H          H       0.08350   0.36490   0.38712   0.08610
H          H       0.27247   0.37426   0.31619   0.11350
H          H       0.28277   0.33154   0.41861   0.12489
H          H       0.28109   0.39608   0.63248   0.09784
H          H       0.30530   0.25135   0.72017   0.11982
H          H       0.20481   0.21085   0.63130   0.13269
H          H       0.94233   0.00847   0.59016   0.11122
H          H       0.92991   0.98865   0.77788   0.11370
H          H       0.76994   0.07509   0.70811   0.11157
H          H       0.91121   0.09838   0.55505   0.10201
H          H       0.71149   0.10099   0.51116   0.11772
H          H       0.72466   0.05425   0.61202   0.12931
H          H       0.01901   0.93079   0.56859   0.08816
H          H       0.14682   0.91434   0.71013   0.10324
H          H       0.03246   0.97279   0.76909   0.12352
H          H       0.77526   0.13803   0.83155   0.10060
H          H       0.74421   0.99026   0.91360   0.11605
H          H       0.82461   0.93813   0.80653   0.13140
H          H       0.69687   0.35323   0.33316   0.11425
H          H       0.82967   0.42833   0.22244   0.10940
H          H       0.90290   0.30363   0.32412   0.10499
H          H       0.86520   0.21955   0.35124   0.09438
H          H       0.71805   0.24929   0.49030   0.11707
H          H       0.70183   0.34266   0.43143   0.12798
H          H       0.75817   0.51328   0.24946   0.09195
H          H       0.55625   0.47296   0.23855   0.11316
H          H       0.62044   0.37153   0.26488   0.12448
H          H       0.99419   0.37462   0.32576   0.10225
H          H       0.04703   0.37713   0.14354   0.12282
H          H       0.91236   0.36620   0.14904   0.13315
H          H       0.44716   0.30732   0.94379   0.10719
H          H       0.24776   0.33967   0.01622   0.11443
H          H       0.39300   0.25424   0.10636   0.11317
H          H       0.50633   0.19279   0.93259   0.10196
H          H       0.62445   0.23458   0.09648   0.11702
H          H       0.50776   0.30494   0.13055   0.12920
H          H       0.41684   0.36422   0.88682   0.08700
H          H       0.22790   0.37399   0.81581   0.11372
H          H       0.21752   0.33126   0.91824   0.12534
H          H       0.21940   0.39649   0.13308   0.09800
H          H       0.19495   0.25190   0.22085   0.11946
H          H       0.29523   0.21087   0.13178   0.13209
H          H       0.55744   0.00951   0.09090   0.11144
H          H       0.57027   0.98911   0.27823   0.11279
H          H       0.73067   0.07431   0.20805   0.11180
H          H       0.58882   0.09781   0.05483   0.09911
H          H       0.78835   0.10035   0.01076   0.11695
H          H       0.77549   0.05425   0.11207   0.12983
H          H       0.48188   0.93098   0.06892   0.08798
H          H       0.35377   0.91461   0.21049   0.10415
H          H       0.46833   0.97213   0.26922   0.12351
H          H       0.72488   0.13840   0.33196   0.10163
H          H       0.75651   0.99032   0.41364   0.11926
H          H       0.67579   0.93849   0.30677   0.13140
H          H       0.80333   0.35316   0.83284   0.11463
H          H       0.66988   0.42813   0.72234   0.10924
H          H       0.59751   0.30319   0.82414   0.10405
H          H       0.63484   0.22043   0.85167   0.09363
H          H       0.78220   0.24954   0.99050   0.11770
H          H       0.79833   0.34281   0.93150   0.12726
H          H       0.74160   0.51383   0.74964   0.08991
H          H       0.94356   0.47366   0.73898   0.11267
H          H       0.87947   0.37162   0.76430   0.12448
H          H       0.50611   0.37460   0.82581   0.10193
H          H       0.45294   0.37722   0.64374   0.11985
H          H       0.58765   0.36644   0.64909   0.13375
H          H       0.94719   0.69229   0.55601   0.10741
H          H       0.74776   0.66026   0.48361   0.11463
H          H       0.89293   0.74598   0.39375   0.11322
H          H       0.00694   0.80702   0.56759   0.10164
H          H       0.12444   0.76543   0.40319   0.11773
H          H       0.00778   0.69502   0.36951   0.12860
H          H       0.91712   0.63554   0.61267   0.08626
H          H       0.72856   0.62588   0.68433   0.11295
H          H       0.71766   0.66849   0.58178   0.12489
H          H       0.71938   0.60386   0.36757   0.09829
H          H       0.69488   0.74840   0.27965   0.11921
H          H       0.79535   0.78920   0.36847   0.13240
H          H       0.05755   0.99052   0.40923   0.11030
H          H       0.07034   0.01066   0.22172   0.11399
H          H       0.23100   0.92589   0.29226   0.11122
H          H       0.08870   0.90187   0.44502   0.09920
H          H       0.28844   0.89898   0.48906   0.11711
H          H       0.27543   0.94577   0.38816   0.12911
H          H       0.98154   0.06965   0.43141   0.08790
H          H       0.85382   0.08521   0.28934   0.10411
H          H       0.96847   0.02734   0.23092   0.12385
H          H       0.22482   0.86142   0.16791   0.10067
H          H       0.25587   0.00941   0.08610   0.11856
H          H       0.17580   0.06147   0.19347   0.13165
H          H       0.30313   0.64654   0.66675   0.11432
H          H       0.17006   0.57296   0.77857   0.10955
H          H       0.09743   0.69705   0.67608   0.10466
H          H       0.13450   0.78013   0.64862   0.09420
H          H       0.28165   0.75013   0.50947   0.11691
H          H       0.29806   0.65728   0.56914   0.12898
H          H       0.24146   0.48703   0.75099   0.09137
H          H       0.44361   0.52595   0.76059   0.11291
H          H       0.37987   0.62858   0.73606   0.12424
H          H       0.00610   0.62576   0.67406   0.10193
H          H       0.95250   0.62232   0.85582   0.11972
H          H       0.08723   0.63214   0.85042   0.13376
C          C       0.57618   0.72124   0.97506   0.19244
C          C       0.59109   0.69746   0.02415  -0.36289
C          C       0.65762   0.67818   0.02930   0.14627
C          C       0.70292   0.67769   0.98205  -0.27843
C          C       0.68529   0.70005   0.93271   0.15291
C          C       0.62132   0.72546   0.92983  -0.38020
C          C       0.47510   0.78579   0.01897   0.07649
C          C       0.41725   0.76382   0.93235  -0.05530
C          C       0.47447   0.72897   0.91449  -0.11658
C          C       0.63512   0.64175   0.12110  -0.00296
C          C       0.73463   0.63347   0.15338  -0.05607
C          C       0.74016   0.65441   0.10201  -0.15337
C          C       0.77666   0.64953   0.85736   0.02253
C          C       0.78573   0.72478   0.81141  -0.05565
C          C       0.73555   0.74529   0.85447  -0.14051
C          C       0.35515   0.95455   0.85586   0.16183
C          C       0.41632   0.98448   0.86525  -0.28397
C          C       0.44436   0.00613   0.81829   0.14282
C          C       0.40927   0.99711   0.76008  -0.35309
C          C       0.34744   0.96916   0.75366   0.18946
C          C       0.31813   0.94701   0.79939  -0.38765
C          C       0.35999   0.90993   0.94567   0.03277
C          C       0.25551   0.90648   0.96483  -0.05853
C          C       0.26122   0.92908   0.91453  -0.13518
C          C       0.53913   0.06373   0.88549  -0.00151
C          C       0.60300   0.07353   0.81064  -0.05951
C          C       0.54624   0.04476   0.78081  -0.15677
C          C       0.27638   0.90889   0.66010   0.07448
C          C       0.26262   0.98669   0.61925  -0.05369
C          C       0.30275   0.01318   0.67131  -0.11871
C          C       0.29771   0.67368   0.16548   0.16704
C          C       0.24555   0.64321   0.18412  -0.29611
C          C       0.25632   0.60608   0.22460   0.13768
C          C       0.32037   0.60142   0.24757  -0.34229
C          C       0.37092   0.63510   0.23045   0.18297
C          C       0.36221   0.67155   0.18914  -0.40365
C          C       0.32472   0.75907   0.11740   0.03469
C          C       0.24625   0.74322   0.04752  -0.05170
C          C       0.23680   0.69760   0.07755  -0.14317
C          C       0.21265   0.51239   0.25344  -0.00253
C          C       0.10783   0.53343   0.25528  -0.05966
C          C       0.13875   0.58349   0.24094  -0.15993
C          C       0.49190   0.62731   0.22295   0.05761
C          C       0.51616   0.62381   0.31715  -0.05733
C          C       0.44964   0.62892   0.31525  -0.12463
C          C       0.07601   0.27881   0.52482   0.19322
C          C       0.09095   0.30268   0.47578  -0.36613
C          C       0.15759   0.32187   0.47076   0.14602
C          C       0.20277   0.32236   0.51803  -0.27826
C          C       0.18509   0.30006   0.56741   0.15236
C          C       0.12105   0.27463   0.57010  -0.37906
C          C       0.97478   0.21438   0.48105   0.07515
C          C       0.91713   0.23648   0.56783  -0.05617
C          C       0.97437   0.27123   0.58547  -0.11558
C          C       0.13513   0.35814   0.37903  -0.00333
C          C       0.23443   0.36645   0.34638  -0.05576
C          C       0.24028   0.34557   0.39780  -0.15389
C          C       0.27673   0.35032   0.64252   0.02113
C          C       0.28602   0.27468   0.68800  -0.05657
C          C       0.23555   0.25460   0.64532  -0.14088
C          C       0.85500   0.04533   0.64402   0.16162
C          C       0.91629   0.01552   0.63452  -0.28487
C          C       0.94450   0.99419   0.68170   0.14214
C          C       0.90939   0.00313   0.73984  -0.34993
C          C       0.84750   0.03100   0.74639   0.18826
C          C       0.81818   0.05310   0.70061  -0.38647
C          C       0.85932   0.09008   0.55439   0.03130
C          C       0.75484   0.09335   0.53530  -0.05489
C          C       0.76066   0.07056   0.58554  -0.13687
C          C       0.03925   0.93632   0.61465  -0.00258
C          C       0.10302   0.92628   0.68939  -0.05875
C          C       0.04642   0.95552   0.71938  -0.15716
C          C       0.77643   0.09119   0.84004   0.07335
C          C       0.76262   0.01328   0.88079  -0.05406
C          C       0.80287   0.98689   0.82876  -0.11932
C          C       0.79778   0.32660   0.33466   0.16645
C          C       0.74567   0.35704   0.31590  -0.29423
C          C       0.75634   0.39397   0.27528   0.13729
C          C       0.82050   0.39896   0.25258  -0.34353
C          C       0.87095   0.36506   0.26958   0.18360
C          C       0.86233   0.32843   0.31074  -0.40481
C          C       0.82460   0.24101   0.38239   0.03492
C          C       0.74619   0.25668   0.45234  -0.05127
C          C       0.73675   0.30260   0.42266  -0.14296
C          C       0.71250   0.48749   0.24640  -0.00419
C          C       0.60774   0.46637   0.24451  -0.05787
C          C       0.63870   0.41624   0.25881  -0.15993
C          C       0.99196   0.37261   0.27679   0.05820
C          C       0.01612   0.37571   0.18237  -0.06034
C          C       0.94964   0.37060   0.18442  -0.12330
C          C       0.42390   0.27882   0.02479   0.19329
C          C       0.40919   0.30273   0.97573  -0.36867
C          C       0.34252   0.32199   0.97074   0.14804
C          C       0.29737   0.32246   0.01801  -0.27732
C          C       0.31492   0.30015   0.06745   0.15162
C          C       0.37895   0.27461   0.07009  -0.37747
C          C       0.52481   0.21390   0.98088   0.07701
C          C       0.58280   0.23608   0.06734  -0.05320
C          C       0.52558   0.27111   0.08521  -0.11617
C          C       0.36515   0.35811   0.87897  -0.00316
C          C       0.26586   0.36632   0.84613  -0.05541
C          C       0.25994   0.34553   0.89761  -0.15382
C          C       0.22348   0.35053   0.14283   0.02105
C          C       0.21423   0.27504   0.18849  -0.05631
C          C       0.26457   0.25474   0.14564  -0.13991
C          C       0.64525   0.04545   0.14431   0.16237
C          C       0.58377   0.01610   0.13504  -0.28434
C          C       0.55588   0.99449   0.18210   0.14342
C          C       0.59094   0.00348   0.24024  -0.35103
C          C       0.65282   0.03134   0.24682   0.18679
C          C       0.68222   0.05293   0.20077  -0.38537
C          C       0.64073   0.08992   0.05440   0.03435
C          C       0.74508   0.09307   0.03514  -0.05662
C          C       0.73946   0.07064   0.08564  -0.13794
C          C       0.46149   0.93639   0.11490  -0.00342
C          C       0.39761   0.92620   0.18961  -0.05866
C          C       0.45426   0.95525   0.21959  -0.15627
C          C       0.72397   0.09150   0.34037   0.07126
C          C       0.73795   0.01339   0.38092  -0.05720
C          C       0.69764   0.98713   0.32894  -0.11952
C          C       0.70252   0.32653   0.83453   0.16515
C          C       0.75451   0.35697   0.81561  -0.29292
C          C       0.74357   0.39419   0.77528   0.13598
C          C       0.67932   0.39900   0.75263  -0.34311
C          C       0.62910   0.36478   0.76950   0.18235
C          C       0.63786   0.32821   0.81070  -0.40616
C          C       0.67555   0.24147   0.88271   0.03475
C          C       0.75400   0.25697   0.95260  -0.05302
C          C       0.76346   0.30278   0.92282  -0.14352
C          C       0.78719   0.48784   0.74641  -0.00510
C          C       0.89210   0.46683   0.74469  -0.05785
C          C       0.86111   0.41651   0.75874  -0.16161
C          C       0.50817   0.37254   0.77684   0.06056
C          C       0.48392   0.37573   0.68247  -0.05738
C          C       0.55043   0.37056   0.68443  -0.12289
C          C       0.92407   0.72123   0.47526   0.19346
C          C       0.90926   0.69714   0.52415  -0.36867
C          C       0.84260   0.67787   0.52908   0.14746
C          C       0.79740   0.67749   0.48191  -0.27794
C          C       0.81507   0.69998   0.43264   0.15157
C          C       0.87909   0.72552   0.43002  -0.37833
C          C       0.02509   0.78599   0.51915   0.07682
C          C       0.08291   0.76384   0.43248  -0.05570
C          C       0.02568   0.72889   0.41477  -0.11570
C          C       0.86548   0.64188   0.62077  -0.00240
C          C       0.76630   0.63360   0.65381  -0.05666
C          C       0.76020   0.65433   0.60236  -0.15202
C          C       0.72364   0.64957   0.35739   0.02001
C          C       0.71424   0.72510   0.31183  -0.05637
C          C       0.76470   0.74536   0.35453  -0.14050
C          C       0.14537   0.95449   0.35587   0.16052
C          C       0.08389   0.98394   0.36509  -0.28254
C          C       0.05591   0.00561   0.31816   0.14512
C          C       0.09098   0.99649   0.25989  -0.35546
C          C       0.15295   0.96873   0.25349   0.18874
C          C       0.18246   0.94718   0.29947  -0.38369
C          C       0.14064   0.90983   0.44557   0.03187
C          C       0.24516   0.90650   0.46474  -0.05605
C          C       0.23944   0.92917   0.41441  -0.13722
C          C       0.96132   0.06393   0.38532  -0.00313
C          C       0.89759   0.07367   0.31037  -0.05723
C          C       0.95430   0.04461   0.28058  -0.15695
C          C       0.22385   0.90838   0.15961   0.07370
C          C       0.23767   0.98639   0.11897  -0.05667
C          C       0.19754   0.01279   0.17118  -0.11839
C          C       0.20231   0.67369   0.66570   0.16618
C          C       0.25439   0.64309   0.68434  -0.29412
C          C       0.24362   0.60624   0.72502   0.13698
C          C       0.17940   0.60151   0.74774  -0.34406
C          C       0.12892   0.63517   0.73047   0.18364
C          C       0.13769   0.67180   0.68936  -0.40585
C          C       0.17530   0.75897   0.61766   0.03507
C          C       0.25365   0.74302   0.54766  -0.05167
C          C       0.26320   0.69744   0.57759  -0.14390
C          C       0.28729   0.51240   0.75353  -0.00310
C          C       0.39211   0.53302   0.75508  -0.05869
C          C       0.36133   0.58357   0.74132  -0.15959
C          C       0.00800   0.62741   0.72294   0.05873
C          C       0.98362   0.62370   0.81713  -0.05753
C          C       0.05012   0.62852   0.81510  -0.12372
N          N       0.41826   0.79959   0.99737  -0.29141
N          N       0.51094   0.74290   0.97012   0.03279
N          N       0.66997   0.62517   0.16520  -0.29986
N          N       0.67654   0.65922   0.08062   0.04629
N          N       0.81136   0.66573   0.81328  -0.29820
N          N       0.73061   0.69798   0.88470   0.03994
N          N       0.31667   0.89472   0.98393  -0.27224
N          N       0.32787   0.93256   0.90307   0.04007
N          N       0.59855   0.08559   0.87518  -0.28589
N          N       0.50550   0.03694   0.82836   0.04545
N          N       0.24666   0.92164   0.61242  -0.29179
N          N       0.31118   0.96320   0.69711   0.03396
N          N       0.30073   0.78111   0.07215  -0.27385
N          N       0.28666   0.70825   0.12277   0.04066
N          N       0.15320   0.48943   0.26313  -0.30149
N          N       0.20579   0.56985   0.23889   0.04609
N          N       0.54230   0.62252   0.25960  -0.27718
N          N       0.43432   0.63082   0.25494   0.04168
N          N       0.91799   0.20063   0.50279  -0.28991
N          N       0.01074   0.25722   0.52978   0.03209
N          N       0.16972   0.37470   0.33477  -0.29912
N          N       0.17669   0.34067   0.41935   0.04758
N          N       0.31168   0.33373   0.68620  -0.29835
N          N       0.23042   0.30211   0.61536   0.04081
N          N       0.81599   0.10534   0.51624  -0.27256
N          N       0.82739   0.06710   0.59680   0.04079
N          N       0.09855   0.91410   0.62484  -0.28502
N          N       0.00572   0.96346   0.67183   0.04381
N          N       0.74665   0.07836   0.88765  -0.29157
N          N       0.81133   0.03690   0.80299   0.03423
N          N       0.80059   0.21871   0.42745  -0.27640
N          N       0.78657   0.29202   0.37730   0.03941
N          N       0.65306   0.51047   0.23678  -0.30129
N          N       0.70570   0.42998   0.26087   0.04567
N          N       0.04229   0.37733   0.24000  -0.27818
N          N       0.93437   0.36919   0.24493   0.04212
N          N       0.58166   0.20005   0.00234  -0.29493
N          N       0.48908   0.25690   0.02965   0.03242
N          N       0.33061   0.37459   0.83465  -0.29817
N          N       0.32349   0.34078   0.91931   0.04620
N          N       0.18861   0.33413   0.18667  -0.29838
N          N       0.26966   0.30215   0.11549   0.03926
N          N       0.68396   0.10500   0.01602  -0.27282
N          N       0.67274   0.06736   0.09710   0.03961
N          N       0.40209   0.91428   0.12507  -0.28634
N          N       0.49493   0.96332   0.17211   0.04353
N          N       0.75386   0.07849   0.38783  -0.29285
N          N       0.68911   0.03720   0.30331   0.03568
N          N       0.69956   0.21911   0.92778  -0.27487
N          N       0.71374   0.29220   0.87740   0.04076
N          N       0.84670   0.51081   0.73691  -0.30084
N          N       0.79406   0.43021   0.76073   0.04652
N          N       0.45782   0.37730   0.74014  -0.27769
N          N       0.56570   0.36894   0.74484   0.04294
N          N       0.08187   0.79978   0.49751  -0.29352
N          N       0.98924   0.74312   0.47041   0.03318
N          N       0.83107   0.62542   0.66517  -0.29746
N          N       0.82366   0.65914   0.58052   0.04635
N          N       0.68864   0.66601   0.31364  -0.29731
N          N       0.76982   0.69791   0.38461   0.04030
N          N       0.18401   0.89462   0.48379  -0.27254
N          N       0.17273   0.93255   0.40302   0.03996
N          N       0.90193   0.08588   0.37495  -0.28504
N          N       0.99489   0.03671   0.32817   0.04227
N          N       0.25358   0.92126   0.11200  -0.29361
N          N       0.18920   0.96275   0.19689   0.03225
N          N       0.19927   0.78108   0.57241  -0.27506
N          N       0.21345   0.70818   0.62297   0.03928
N          N       0.34667   0.48906   0.76281  -0.30179
N          N       0.29420   0.57017   0.73950   0.04514
N          N       0.95759   0.62264   0.75961  -0.27775
N          N       0.06550   0.63071   0.75491   0.04267

