data_crystal

_audit_creation_method 'AiiDA-DDEC plugin'

_cell_length_a        19.64586
_cell_length_b        19.62339
_cell_length_c        29.51479

_cell_angle_alpha     89.96204
_cell_angle_beta     90.04204
_cell_angle_gamma     120.22704

_symmetry_space_group_name_Hall 'P 1'
_symmetry_space_group_name_H-M  'P 1'

loop_
_symmetry_equiv_pos_as_xyz
 'x,y,z'

loop_
_atom_site_label
_atom_site_type_symbol
_atom_site_fract_x
_atom_site_fract_y
_atom_site_fract_z
_atom_site_charge
Cu         Cu      0.63736   0.31083   0.32996   0.86217
Cu         Cu      0.75482   0.32394   0.49611   0.85128
Cu         Cu      0.67292   0.36269   0.66265   0.86010
Cu         Cu      0.57057   0.24604   0.82942   0.85489
Cu         Cu      0.68948   0.32663   0.99643   0.86032
Cu         Cu      0.67624   0.43084   0.16309   0.85303
Cu         Cu      0.32643   0.68922   0.66979   0.86161
Cu         Cu      0.43122   0.67567   0.50401   0.85067
Cu         Cu      0.31056   0.63809   0.33738   0.86134
Cu         Cu      0.32392   0.75399   0.17031   0.85401
Cu         Cu      0.36312   0.67345   0.00363   0.86013
Cu         Cu      0.24560   0.56940   0.83684   0.85362
Ni         Ni      0.51443   0.02880   0.24026   0.61837
Ni         Ni      0.51439   0.48552   0.57356   0.61875
Ni         Ni      0.97107   0.48565   0.90701   0.61868
Ni         Ni      0.48573   0.97112   0.75966   0.61792
Ni         Ni      0.02881   0.51439   0.42644   0.61794
Ni         Ni      0.48552   0.51442   0.09315   0.61887
H          H       0.59118   0.13060   0.39262   0.10741
H          H       0.64829   0.05420   0.40417   0.11345
H          H       0.74540   0.01319   0.38450   0.10429
H          H       0.84348   0.08309   0.32318   0.10050
H          H       0.84340   0.19375   0.28171   0.10459
H          H       0.74514   0.23367   0.30115   0.12217
H          H       0.91122   0.42704   0.57789   0.10517
H          H       0.81724   0.51942   0.50882   0.11667
H          H       0.85139   0.65916   0.51896   0.09748
H          H       0.95228   0.74431   0.57581   0.09822
H          H       0.01806   0.68865   0.62303   0.10203
H          H       0.98360   0.54942   0.61267   0.10888
H          H       0.37164   0.96098   0.22239   0.25105
H          H       0.46429   0.87965   0.24566   0.24616
H          H       0.32516   0.86630   0.33132   0.10040
H          H       0.33133   0.85071   0.27341   0.10640
H          H       0.55354   0.17307   0.23712   0.24858
H          H       0.47344   0.94398   0.33651   0.09111
H          H       0.43131   0.84212   0.32357   0.08038
H          H       0.43957   0.07929   0.16599   0.09207
H          H       0.45705   0.17216   0.18606   0.08251
H          H       0.30147   0.95810   0.29197   0.06576
H          H       0.39625   0.01405   0.31712   0.08637
H          H       0.60409   0.22296   0.16198   0.07962
H          H       0.57172   0.12419   0.14534   0.08954
H          H       0.64763   0.05970   0.16546   0.08794
H          H       0.73616   0.11087   0.19727   0.06397
H          H       0.71872   0.21189   0.16428   0.10988
H          H       0.69269   0.20975   0.22109   0.10417
H          H       0.56519   0.87237   0.28345   0.09568
H          H       0.59213   0.96316   0.31113   0.08407
H          H       0.65736   0.08693   0.26373   0.22479
H          H       0.41818   0.11516   0.26457   0.09967
H          H       0.33925   0.06464   0.22571   0.07562
H          H       0.60635   0.94497   0.20864   0.08642
H          H       0.68595   0.98487   0.24790   0.07507
H          H       0.54049   0.40971   0.72516   0.10751
H          H       0.40582   0.35172   0.73731   0.11389
H          H       0.26715   0.25397   0.71766   0.10372
H          H       0.23837   0.15569   0.65647   0.09917
H          H       0.34919   0.15585   0.61527   0.10631
H          H       0.48780   0.25461   0.63461   0.12259
H          H       0.51593   0.08854   0.91069   0.10443
H          H       0.70286   0.18251   0.84162   0.11648
H          H       0.80830   0.14861   0.85210   0.09629
H          H       0.79187   0.04812   0.90935   0.09820
H          H       0.66991   0.98219   0.95639   0.10089
H          H       0.56542   0.01655   0.94566   0.10901
H          H       0.58960   0.62820   0.55570   0.25190
H          H       0.41519   0.53525   0.57861   0.24744
H          H       0.54162   0.67469   0.66447   0.10062
H          H       0.52016   0.66870   0.60651   0.10751
H          H       0.61940   0.44706   0.57027   0.24897
H          H       0.47037   0.52628   0.66948   0.08990
H          H       0.41086   0.56819   0.65642   0.08071
H          H       0.64027   0.56128   0.49923   0.09257
H          H       0.71554   0.54393   0.51942   0.08198
H          H       0.65750   0.69892   0.62526   0.06608
H          H       0.61821   0.60410   0.65048   0.08561
H          H       0.61865   0.39643   0.49528   0.07964
H          H       0.55235   0.42840   0.47837   0.08964
H          H       0.41137   0.35191   0.49840   0.08774
H          H       0.37377   0.26344   0.53030   0.06391
H          H       0.49247   0.28140   0.49755   0.11063
H          H       0.51641   0.30771   0.55435   0.10424
H          H       0.30675   0.43410   0.61635   0.09542
H          H       0.37058   0.40744   0.64407   0.08371
H          H       0.42888   0.34258   0.59672   0.22542
H          H       0.69759   0.58258   0.59789   0.09845
H          H       0.72610   0.66161   0.55907   0.07515
H          H       0.33779   0.39297   0.54159   0.08658
H          H       0.29791   0.31335   0.58089   0.07572
H          H       0.86991   0.46004   0.05857   0.10712
H          H       0.94645   0.59485   0.07070   0.11408
H          H       0.98728   0.73347   0.05108   0.10409
H          H       0.91746   0.76142   0.98982   0.10085
H          H       0.80645   0.64993   0.94864   0.10418
H          H       0.76670   0.51138   0.96803   0.12285
H          H       0.57267   0.48468   0.24435   0.10464
H          H       0.47963   0.29722   0.17545   0.11614
H          H       0.33983   0.19131   0.18565   0.09742
H          H       0.25529   0.20724   0.24253   0.09780
H          H       0.31153   0.32930   0.28958   0.10189
H          H       0.45082   0.43431   0.27920   0.10939
H          H       0.03836   0.41068   0.88899   0.25260
H          H       0.12052   0.58550   0.91213   0.24743
H          H       0.13310   0.45898   0.99786   0.10095
H          H       0.14868   0.48074   0.93993   0.10658
H          H       0.82707   0.38008   0.90367   0.24773
H          H       0.05606   0.52974   0.00293   0.08979
H          H       0.15784   0.58977   0.98997   0.08035
H          H       0.92038   0.36005   0.83250   0.09271
H          H       0.82746   0.28429   0.85253   0.08193
H          H       0.04097   0.34295   0.95856   0.06615
H          H       0.98549   0.38192   0.98375   0.08567
H          H       0.77707   0.38063   0.82855   0.07924
H          H       0.87572   0.44736   0.81180   0.09013
H          H       0.94073   0.58832   0.83195   0.08834
H          H       0.88983   0.62566   0.86370   0.06385
H          H       0.78860   0.50671   0.83079   0.11007
H          H       0.79071   0.48269   0.88760   0.10451
H          H       0.12784   0.69370   0.95000   0.09593
H          H       0.03707   0.62922   0.97759   0.08436
H          H       0.91357   0.57047   0.93022   0.22540
H          H       0.88414   0.30224   0.93109   0.09901
H          H       0.93453   0.27398   0.89225   0.07534
H          H       0.05536   0.66213   0.87513   0.08675
H          H       0.01584   0.70190   0.91438   0.07521
H          H       0.46087   0.86966   0.60727   0.10783
H          H       0.59488   0.94634   0.59585   0.11374
H          H       0.73325   0.98731   0.61560   0.10450
H          H       0.76103   0.91726   0.67688   0.10083
H          H       0.64964   0.80639   0.71816   0.10428
H          H       0.51125   0.76642   0.69862   0.12216
H          H       0.48433   0.57339   0.42209   0.10496
H          H       0.29741   0.48014   0.49100   0.11607
H          H       0.19153   0.34017   0.48093   0.09570
H          H       0.20744   0.25525   0.42425   0.09813
H          H       0.32919   0.31147   0.37709   0.10093
H          H       0.43414   0.45096   0.38732   0.10884
H          H       0.41089   0.03854   0.77751   0.25153
H          H       0.58532   0.12044   0.75427   0.24657
H          H       0.45909   0.13339   0.66866   0.10075
H          H       0.48100   0.14887   0.72658   0.10627
H          H       0.37996   0.82675   0.76281   0.24806
H          H       0.52963   0.05606   0.66343   0.09046
H          H       0.58969   0.15794   0.67640   0.08039
H          H       0.36038   0.92052   0.83394   0.09206
H          H       0.28451   0.82750   0.81399   0.08218
H          H       0.34324   0.04127   0.70798   0.06563
H          H       0.38192   0.98555   0.68276   0.08587
H          H       0.38077   0.77704   0.83797   0.07954
H          H       0.44748   0.87587   0.85458   0.08952
H          H       0.58830   0.94076   0.83444   0.08798
H          H       0.62547   0.88970   0.80269   0.06417
H          H       0.50667   0.78852   0.83569   0.11034
H          H       0.48262   0.79051   0.77886   0.10440
H          H       0.69354   0.12798   0.71641   0.09575
H          H       0.62924   0.03713   0.68877   0.08431
H          H       0.57045   0.91341   0.73619   0.22494
H          H       0.30237   0.88419   0.73540   0.09924
H          H       0.27430   0.93474   0.77426   0.07522
H          H       0.66202   0.05543   0.79124   0.08656
H          H       0.70164   0.01574   0.75201   0.07683
H          H       0.13050   0.59039   0.27486   0.10711
H          H       0.05401   0.64803   0.26262   0.11414
H          H       0.01329   0.74553   0.28213   0.10451
H          H       0.08298   0.84376   0.34342   0.09910
H          H       0.19357   0.84374   0.38488   0.10651
H          H       0.23322   0.74522   0.36568   0.12263
H          H       0.42762   0.91154   0.08915   0.10481
H          H       0.52024   0.81771   0.15829   0.11612
H          H       0.65976   0.85163   0.14780   0.09618
H          H       0.74429   0.95213   0.09057   0.09823
H          H       0.68860   0.01817   0.04357   0.10043
H          H       0.54960   0.98388   0.05434   0.10870
H          H       0.96097   0.37166   0.44432   0.25169
H          H       0.87951   0.46412   0.42135   0.24672
H          H       0.86623   0.32504   0.33546   0.10227
H          H       0.85066   0.33083   0.39339   0.10723
H          H       0.17272   0.55349   0.42981   0.24888
H          H       0.94370   0.47341   0.33050   0.08980
H          H       0.84201   0.43115   0.34349   0.08009
H          H       0.07911   0.43912   0.50083   0.09209
H          H       0.17188   0.45676   0.48065   0.08213
H          H       0.95800   0.30119   0.37474   0.06668
H          H       0.01378   0.39608   0.34958   0.08575
H          H       0.22280   0.60412   0.50484   0.07902
H          H       0.12428   0.57183   0.52167   0.09006
H          H       0.05977   0.64780   0.50161   0.08766
H          H       0.11078   0.73633   0.46972   0.06349
H          H       0.21180   0.71889   0.50256   0.11016
H          H       0.20940   0.69268   0.44577   0.10477
H          H       0.87234   0.56510   0.38357   0.09516
H          H       0.96299   0.59201   0.35588   0.08364
H          H       0.08664   0.65728   0.40331   0.22562
H          H       0.11489   0.41797   0.40219   0.09904
H          H       0.06432   0.33889   0.44100   0.07499
H          H       0.94483   0.60641   0.45836   0.08600
H          H       0.98477   0.68604   0.41906   0.07608
H          H       0.40978   0.54047   0.94137   0.10713
H          H       0.35152   0.40557   0.92931   0.11417
H          H       0.25375   0.26681   0.94906   0.10433
H          H       0.15571   0.23830   0.01026   0.10065
H          H       0.15601   0.34946   0.05133   0.10463
H          H       0.25491   0.48818   0.03185   0.12214
H          H       0.08780   0.51537   0.75562   0.10430
H          H       0.18258   0.70266   0.82474   0.11646
H          H       0.14870   0.80818   0.81453   0.09775
H          H       0.04819   0.79203   0.75749   0.09887
H          H       0.98219   0.67009   0.71033   0.10055
H          H       0.01642   0.56546   0.72071   0.10924
H          H       0.62837   0.58995   0.11110   0.25137
H          H       0.53503   0.41505   0.08802   0.24725
H          H       0.67442   0.54167   0.00223   0.10111
H          H       0.66835   0.51995   0.06017   0.10699
H          H       0.44719   0.61951   0.09629   0.24774
H          H       0.52620   0.47047   0.99716   0.08997
H          H       0.56793   0.41072   0.01018   0.08078
H          H       0.56100   0.64033   0.16751   0.09233
H          H       0.54378   0.71575   0.14733   0.08274
H          H       0.69867   0.65759   0.04148   0.06623
H          H       0.60390   0.61830   0.01634   0.08540
H          H       0.39665   0.61897   0.17137   0.07985
H          H       0.42848   0.55247   0.18822   0.08987
H          H       0.35205   0.41146   0.16810   0.08814
H          H       0.26357   0.37385   0.13629   0.06447
H          H       0.28163   0.49269   0.16914   0.11044
H          H       0.30780   0.51671   0.11233   0.10441
H          H       0.43366   0.30651   0.05018   0.09533
H          H       0.40733   0.37070   0.02254   0.08423
H          H       0.34274   0.42919   0.06981   0.22575
H          H       0.58245   0.69774   0.06885   0.09948
H          H       0.66138   0.72643   0.10770   0.07562
H          H       0.39283   0.33792   0.12502   0.08656
H          H       0.31328   0.29791   0.08574   0.07647
C          C       0.69318   0.28541   0.41035   0.33947
C          C       0.71421   0.37250   0.41144   0.48808
C          C       0.57298   0.14509   0.32178   0.55998
C          C       0.62688   0.16685   0.36387  -0.01339
C          C       0.69012   0.14602   0.35389   0.09069
C          C       0.69094   0.08436   0.37725  -0.13553
C          C       0.74574   0.06152   0.36620  -0.08908
C          C       0.80069   0.10069   0.33174  -0.11344
C          C       0.80054   0.16280   0.30845  -0.09075
C          C       0.74538   0.18535   0.31935  -0.14429
C          C       0.66433   0.30056   0.57228   0.49219
C          C       0.74881   0.36604   0.58430   0.34196
C          C       0.88109   0.44218   0.55160  -0.00851
C          C       0.91548   0.43697   0.50532   0.55643
C          C       0.89839   0.52563   0.56007   0.09353
C          C       0.86085   0.55676   0.53396  -0.13941
C          C       0.88018   0.63518   0.53971  -0.09642
C          C       0.93689   0.68311   0.57164  -0.11260
C          C       0.97401   0.65206   0.59799  -0.09031
C          C       0.95462   0.57357   0.59220  -0.13581
C          C       0.36174   0.89268   0.30110  -0.20025
C          C       0.44133   0.89908   0.31052  -0.03442
C          C       0.45656   0.11784   0.19586  -0.06507
C          C       0.36250   0.96968   0.29113  -0.02746
C          C       0.59510   0.16574   0.17384  -0.02779
C          C       0.67481   0.09807   0.19501  -0.03604
C          C       0.67382   0.17525   0.18950  -0.19634
C          C       0.57026   0.93048   0.27919  -0.06307
C          C       0.39863   0.07650   0.23468  -0.06619
C          C       0.62721   0.97674   0.24090  -0.06627
C          C       0.59296   0.30781   0.74350   0.33966
C          C       0.65906   0.28719   0.74444   0.48772
C          C       0.57209   0.42661   0.65425   0.55889
C          C       0.54018   0.37329   0.69669  -0.01252
C          C       0.45557   0.30980   0.68715   0.09087
C          C       0.39313   0.30891   0.71047  -0.13620
C          C       0.31516   0.25372   0.69946  -0.08884
C          C       0.29901   0.19856   0.66510  -0.11203
C          C       0.36128   0.19880   0.64193  -0.09218
C          C       0.43926   0.25427   0.65278  -0.14540
C          C       0.63652   0.33553   0.90619   0.49052
C          C       0.61766   0.25107   0.91787   0.34087
C          C       0.56181   0.11915   0.88469  -0.00898
C          C       0.52223   0.08512   0.83832   0.55833
C          C       0.62770   0.10184   0.89318   0.09501
C          C       0.69643   0.13916   0.86696  -0.14062
C          C       0.75533   0.11987   0.87283  -0.09486
C          C       0.74616   0.06335   0.90495  -0.11075
C          C       0.67773   0.02617   0.93124  -0.09046
C          C       0.61888   0.04556   0.92534  -0.13649
C          C       0.53144   0.63823   0.63422  -0.20153
C          C       0.45782   0.55837   0.64345  -0.03419
C          C       0.66164   0.54420   0.52911  -0.06532
C          C       0.60775   0.63774   0.62442  -0.02722
C          C       0.57040   0.40528   0.50699  -0.02734
C          C       0.42252   0.32496   0.52803  -0.03632
C          C       0.50084   0.32637   0.52268  -0.19716
C          C       0.35979   0.42921   0.61212  -0.06407
C          C       0.67842   0.60201   0.56801  -0.06429
C          C       0.34878   0.37222   0.57385  -0.06721
C          C       0.71504   0.40777   0.07696   0.33970
C          C       0.62807   0.34130   0.07819   0.48990
C          C       0.85461   0.42809   0.98786   0.55863
C          C       0.83342   0.46001   0.03019  -0.01240
C          C       0.85454   0.54446   0.02053   0.09119
C          C       0.91623   0.60726   0.04385  -0.13669
C          C       0.93898   0.68515   0.03282  -0.08909
C          C       0.89976   0.70084   0.99844  -0.11417
C          C       0.83755   0.63818   0.97527  -0.09001
C          C       0.81506   0.56027   0.98615  -0.14589
C          C       0.69969   0.36539   0.24015   0.49088
C          C       0.63391   0.38373   0.25175   0.34163
C          C       0.55769   0.43886   0.21836  -0.00761
C          C       0.56313   0.47819   0.17195   0.55768
C          C       0.47419   0.37241   0.22682   0.09401
C          C       0.44263   0.30354   0.20067  -0.14078
C          C       0.36412   0.24429   0.20639  -0.09605
C          C       0.31652   0.25318   0.23832  -0.11150
C          C       0.34788   0.32168   0.26458  -0.09076
C          C       0.42645   0.38088   0.25884  -0.13596
C          C       0.10684   0.46916   0.96761  -0.20041
C          C       0.10085   0.54262   0.97694  -0.03365
C          C       0.88184   0.33831   0.86236  -0.06559
C          C       0.02968   0.39259   0.95772  -0.02778
C          C       0.83434   0.42910   0.84035  -0.02820
C          C       0.90242   0.57700   0.86148  -0.03639
C          C       0.82514   0.49847   0.85600  -0.19701
C          C       0.06976   0.64036   0.94567  -0.06549
C          C       0.92286   0.32159   0.90124  -0.06542
C          C       0.02368   0.65112   0.90739  -0.06602
C          C       0.40829   0.71435   0.58964   0.33876
C          C       0.34204   0.62709   0.58869   0.48814
C          C       0.42794   0.85474   0.67806   0.56046
C          C       0.46020   0.83330   0.63595  -0.01321
C          C       0.54442   0.85436   0.64603   0.09083
C          C       0.60722   0.91616   0.62278  -0.13582
C          C       0.68499   0.93897   0.63387  -0.08901
C          C       0.70054   0.89968   0.66828  -0.11457
C          C       0.63792   0.83748   0.69148  -0.08930
C          C       0.56008   0.81491   0.68054  -0.14528
C          C       0.36404   0.69943   0.42778   0.49112
C          C       0.38282   0.63403   0.41573   0.34169
C          C       0.43887   0.55796   0.44833  -0.00775
C          C       0.47869   0.56315   0.49461   0.55600
C          C       0.37250   0.47440   0.43979   0.09296
C          C       0.30366   0.44295   0.46587  -0.13925
C          C       0.24444   0.36437   0.46019  -0.09472
C          C       0.25331   0.31657   0.42837  -0.11203
C          C       0.32165   0.34795   0.40205  -0.09045
C          C       0.38085   0.42660   0.40774  -0.13486
C          C       0.46928   0.10700   0.69885  -0.20028
C          C       0.54258   0.10090   0.68942  -0.03283
C          C       0.33849   0.88187   0.80410  -0.06576
C          C       0.39274   0.02985   0.70878  -0.02649
C          C       0.42917   0.83432   0.82609  -0.02788
C          C       0.57690   0.90235   0.80492  -0.03559
C          C       0.49843   0.82504   0.81045  -0.19736
C          C       0.64027   0.06982   0.72070  -0.06406
C          C       0.32179   0.92296   0.76525  -0.06440
C          C       0.65097   0.02368   0.75898  -0.06787
C          C       0.28518   0.69242   0.25643   0.34025
C          C       0.37203   0.71313   0.25545   0.48843
C          C       0.14538   0.57340   0.34572   0.55960
C          C       0.16680   0.62682   0.30335  -0.01122
C          C       0.14570   0.69000   0.31297   0.09035
C          C       0.08417   0.69079   0.28951  -0.13617
C          C       0.06151   0.74583   0.30046  -0.08924
C          C       0.10061   0.80095   0.33487  -0.11150
C          C       0.16261   0.80079   0.35820  -0.09317
C          C       0.18499   0.74545   0.34743  -0.14480
C          C       0.30106   0.66445   0.09373   0.49222
C          C       0.36672   0.74909   0.08203   0.34060
C          C       0.44279   0.88109   0.11526  -0.00945
C          C       0.43708   0.91494   0.16164   0.55820
C          C       0.52621   0.89861   0.10684   0.09499
C          C       0.55740   0.86115   0.13299  -0.13935
C          C       0.63568   0.88042   0.12711  -0.09571
C          C       0.68330   0.93698   0.09500  -0.11153
C          C       0.65225   0.97421   0.06873  -0.08948
C          C       0.57392   0.95487   0.07466  -0.13598
C          C       0.89258   0.36148   0.36574  -0.20402
C          C       0.89893   0.44119   0.35651  -0.03266
C          C       0.11759   0.45629   0.47095  -0.06433
C          C       0.96954   0.36229   0.37561  -0.02735
C          C       0.16558   0.59508   0.49309  -0.02671
C          C       0.09795   0.67490   0.47200  -0.03481
C          C       0.17506   0.67387   0.47740  -0.19877
C          C       0.93039   0.57020   0.38783  -0.06311
C          C       0.07627   0.39840   0.43206  -0.06576
C          C       0.97662   0.62725   0.42611  -0.06688
C          C       0.30749   0.59258   0.92305   0.33930
C          C       0.28703   0.65883   0.92184   0.48918
C          C       0.42656   0.57200   0.01218   0.55979
C          C       0.37330   0.54019   0.96978  -0.01153
C          C       0.30974   0.45559   0.97935   0.09006
C          C       0.30875   0.39297   0.95611  -0.13601
C          C       0.25363   0.31497   0.96723  -0.08890
C          C       0.19859   0.29897   0.00159  -0.11432
C          C       0.19891   0.36143   0.02469  -0.09098
C          C       0.25433   0.43944   0.01373  -0.14471
C          C       0.33491   0.63546   0.75983   0.48950
C          C       0.25048   0.61661   0.74821   0.34308
C          C       0.11887   0.56122   0.78160  -0.00788
C          C       0.08487   0.52180   0.82798   0.55793
C          C       0.10192   0.62749   0.77317   0.09487
C          C       0.13925   0.69625   0.79943  -0.14054
C          C       0.11998   0.75525   0.79373  -0.09640
C          C       0.06344   0.74625   0.76171  -0.11338
C          C       0.02622   0.67782   0.73537  -0.08850
C          C       0.04560   0.61886   0.74111  -0.13703
C          C       0.63797   0.53139   0.03249  -0.20142
C          C       0.55818   0.45776   0.02317  -0.03319
C          C       0.54408   0.66181   0.13760  -0.06592
C          C       0.63756   0.60782   0.04236  -0.02710
C          C       0.40537   0.57060   0.15963  -0.02773
C          C       0.32504   0.42265   0.13853  -0.03732
C          C       0.32648   0.50105   0.14396  -0.19692
C          C       0.42900   0.35973   0.05447  -0.06400
C          C       0.60189   0.67862   0.09875  -0.06591
C          C       0.37212   0.34882   0.09273  -0.06769
N          N       0.65695   0.24961   0.37286  -0.45044
N          N       0.79804   0.38335   0.55038  -0.45460
N          N       0.39910   0.00363   0.24686  -0.30377
N          N       0.49250   0.92261   0.26980  -0.29733
N          N       0.53532   0.13395   0.21036  -0.30314
N          N       0.63039   0.05332   0.23554  -0.29605
N          N       0.59272   0.34336   0.70586  -0.45179
N          N       0.58648   0.20229   0.88363  -0.45310
N          N       0.60496   0.60107   0.58020  -0.30459
N          N       0.43004   0.50716   0.60271  -0.29715
N          N       0.59858   0.46519   0.54347  -0.30402
N          N       0.42225   0.36939   0.56849  -0.29596
N          N       0.75077   0.40717   0.03951  -0.45170
N          N       0.61666   0.41512   0.21752  -0.45409
N          N       0.99579   0.39526   0.91347  -0.30445
N          N       0.07750   0.57039   0.93621  -0.29591
N          N       0.86605   0.40110   0.87686  -0.30315
N          N       0.94707   0.57738   0.90200  -0.29607
N          N       0.40733   0.75050   0.62682  -0.45050
N          N       0.41468   0.61660   0.44964  -0.45433
N          N       0.39543   0.99591   0.75303  -0.30560
N          N       0.57032   0.07747   0.73013  -0.29754
N          N       0.40111   0.86592   0.78956  -0.30174
N          N       0.57727   0.94700   0.76438  -0.29578
N          N       0.24947   0.65714   0.29417  -0.45268
N          N       0.38418   0.79785   0.11624  -0.45321
N          N       0.00356   0.39897   0.41985  -0.30368
N          N       0.92253   0.49236   0.39726  -0.29718
N          N       0.13369   0.53520   0.45658  -0.30424
N          N       0.05309   0.63037   0.43152  -0.29674
N          N       0.34364   0.59297   0.96057  -0.45135
N          N       0.20177   0.58514   0.78246  -0.45422
N          N       0.60105   0.60508   0.08661  -0.30387
N          N       0.50700   0.42990   0.06389  -0.29660
N          N       0.46521   0.59872   0.12316  -0.30293
N          N       0.36939   0.42242   0.09806  -0.29628
O          O       0.69365   0.39765   0.37693  -0.52734
O          O       0.75087   0.41294   0.44556  -0.54055
O          O       0.71115   0.25482   0.44318  -0.48185
O          O       0.56530   0.19936   0.30240  -0.54934
O          O       0.54177   0.07453   0.30850  -0.52863
O          O       0.65315   0.27285   0.53180  -0.52899
O          O       0.76509   0.39765   0.62356  -0.47717
O          O       0.61268   0.27943   0.60256  -0.53421
O          O       0.87304   0.37705   0.47988  -0.56351
O          O       0.98331   0.49233   0.49509  -0.51337
O          O       0.70344   0.30598   0.70934  -0.52552
O          O       0.66399   0.25268   0.77927  -0.54108
O          O       0.54525   0.29019   0.77675  -0.48193
O          O       0.63394   0.43439   0.63476  -0.54584
O          O       0.53260   0.45738   0.64090  -0.52796
O          O       0.61998   0.34697   0.86581  -0.52723
O          O       0.63215   0.23434   0.95723  -0.47776
O          O       0.66677   0.38699   0.93667  -0.53300
O          O       0.50319   0.12697   0.81371  -0.56603
O          O       0.51148   0.01829   0.82733  -0.51483
O          O       0.60229   0.29631   0.04330  -0.52839
O          O       0.58871   0.33657   0.11296  -0.54223
O          O       0.74548   0.45640   0.10981  -0.48193
O          O       0.80027   0.36590   0.96847  -0.54705
O          O       0.92512   0.46774   0.97457  -0.52712
O          O       0.72770   0.38168   0.19975  -0.52718
O          O       0.60219   0.36830   0.29098  -0.47791
O          O       0.72076   0.33531   0.27072  -0.53323
O          O       0.62364   0.49663   0.14709  -0.56477
O          O       0.50747   0.48957   0.16121  -0.51567
O          O       0.29604   0.60205   0.62310  -0.52730
O          O       0.33844   0.58654   0.55470  -0.54041
O          O       0.45742   0.74459   0.55697  -0.48102
O          O       0.36579   0.80029   0.69740  -0.54945
O          O       0.46738   0.92531   0.69137  -0.52863
O          O       0.38061   0.72699   0.46827  -0.52826
O          O       0.36738   0.60261   0.37641  -0.47689
O          O       0.33359   0.72062   0.39749  -0.53390
O          O       0.49704   0.62330   0.51994  -0.56356
O          O       0.49061   0.50763   0.50491  -0.51349
O          O       0.39763   0.69431   0.29056  -0.52770
O          O       0.41152   0.74766   0.22064  -0.54107
O          O       0.25481   0.70961   0.22315  -0.48223
O          O       0.19957   0.56574   0.36514  -0.54692
O          O       0.07497   0.54242   0.35909  -0.52824
O          O       0.27299   0.65286   0.13410  -0.52803
O          O       0.39818   0.76586   0.04274  -0.47697
O          O       0.27999   0.61298   0.06330  -0.53321
O          O       0.37603   0.87293   0.18623  -0.56580
O          O       0.49334   0.98188   0.17265  -0.51392
O          O       0.30630   0.70374   0.95674  -0.52737
O          O       0.25227   0.66343   0.88706  -0.54197
O          O       0.28934   0.54417   0.89010  -0.48238
O          O       0.43464   0.63409   0.03160  -0.54732
O          O       0.45724   0.53236   0.02549  -0.52902
O          O       0.34664   0.61943   0.80029  -0.52780
O          O       0.23392   0.63170   0.70897  -0.47802
O          O       0.38619   0.66563   0.72929  -0.53211
O          O       0.12681   0.50302   0.85268  -0.56588
O          O       0.01792   0.51065   0.83882  -0.51558

