data_crystal

_audit_creation_method 'AiiDA-DDEC plugin'

_cell_length_a        16.20438
_cell_length_b        16.21127
_cell_length_c        31.21583

_cell_angle_alpha     99.76401
_cell_angle_beta     99.80738
_cell_angle_gamma     96.49103

_symmetry_space_group_name_Hall 'P 1'
_symmetry_space_group_name_H-M  'P 1'

loop_
_symmetry_equiv_pos_as_xyz
 'x,y,z'

loop_
_atom_site_label
_atom_site_type_symbol
_atom_site_fract_x
_atom_site_fract_y
_atom_site_fract_z
_atom_site_charge
Nd         Nd      0.18757   0.14570   0.20249   2.05484
Nd         Nd      0.35226   0.31142   0.29684   2.05330
Nd         Nd      0.35576   0.47889   0.41534   1.94727
Nd         Nd      0.02093   0.14174   0.08417   1.94804
Nd         Nd      0.81226   0.85372   0.79691   2.05201
Nd         Nd      0.64875   0.68898   0.70343   2.04974
Nd         Nd      0.64162   0.52135   0.58458   1.94692
Nd         Nd      0.97927   0.85856   0.91601   1.94808
H          H       0.72704   0.48050   0.16342   0.13447
H          H       0.63108   0.54650   0.21979   0.13981
H          H       0.35260   0.69783   0.19788   0.13068
H          H       0.29396   0.79336   0.13924   0.13036
H          H       0.38364   0.87153   0.99353   0.14063
H          H       0.47883   0.80169   0.93710   0.13834
H          H       0.62677   0.52356   0.92595   0.13195
H          H       0.68548   0.42909   0.98470   0.13074
H          H       0.54431   0.60437   0.09349   0.26749
H          H       0.49698   0.67636   0.04677   0.26813
H          H       0.58775   0.68078   0.25936   0.10788
H          H       0.55458   0.64463   0.32914   0.10579
H          H       0.32458   0.48802   0.25590   0.11163
H          H       0.35596   0.52848   0.18681   0.11546
H          H       0.22182   0.77221   0.02742   0.11973
H          H       0.12091   0.87585   0.03981   0.12793
H          H       0.32361   0.05328   0.12627   0.11319
H          H       0.42417   0.94921   0.11420   0.11859
H          H       0.47702   0.57126   0.88578   0.09850
H          H       0.51402   0.58695   0.81306   0.11579
H          H       0.70872   0.79560   0.87946   0.11438
H          H       0.66952   0.78057   0.95123   0.11912
H          H       0.64825   0.35052   0.10118   0.10666
H          H       0.75387   0.24971   0.10636   0.12256
H          H       0.91881   0.40663   0.04909   0.12533
H          H       0.81534   0.51060   0.04657   0.11384
H          H       0.96713   0.54501   0.16504   0.13791
H          H       0.90064   0.64180   0.10875   0.13741
H          H       0.68690   0.85868   0.10920   0.13445
H          H       0.59117   0.92469   0.16584   0.12798
H          H       0.57481   0.90792   0.33443   0.13767
H          H       0.64298   0.81341   0.39125   0.14128
H          H       0.85806   0.59697   0.39046   0.12800
H          H       0.95327   0.53045   0.33340   0.12932
H          H       0.80822   0.69697   0.22863   0.26605
H          H       0.73910   0.76071   0.27234   0.26460
H          H       0.92175   0.85785   0.13600   0.10737
H          H       0.96408   0.88821   0.06702   0.12415
H          H       0.75630   0.70291   0.99038   0.10830
H          H       0.71029   0.67867   0.05977   0.10604
H          H       0.64710   0.02882   0.30136   0.10439
H          H       0.54475   0.13189   0.30109   0.11016
H          H       0.36852   0.95559   0.19828   0.10939
H          H       0.47189   0.85368   0.19791   0.10628
H          H       0.64434   0.57731   0.36420   0.10931
H          H       0.61337   0.53604   0.43338   0.12556
H          H       0.79726   0.74485   0.50988   0.10744
H          H       0.82293   0.78991   0.44045   0.10448
H          H       0.18517   0.50966   0.28975   0.12272
H          H       0.08167   0.61275   0.28937   0.11689
H          H       0.98972   0.31430   0.21028   0.12288
H          H       0.88668   0.41750   0.21043   0.11734
H          H       0.01711   0.77186   0.33602   0.13744
H          H       0.95246   0.86943   0.28011   0.13831
H          H       0.80067   0.14670   0.30167   0.13148
H          H       0.70548   0.20546   0.36046   0.13174
H          H       0.62839   0.11596   0.50642   0.14173
H          H       0.69836   0.02086   0.56280   0.13765
H          H       0.97690   0.87260   0.57381   0.13155
H          H       0.07078   0.81375   0.51474   0.13042
H          H       0.89595   0.95623   0.40657   0.26761
H          H       0.82369   0.00297   0.45327   0.26810
H          H       0.97203   0.14332   0.31317   0.11493
H          H       0.01259   0.17447   0.24400   0.11158
H          H       0.85455   0.94552   0.17071   0.10643
H          H       0.81744   0.91240   0.24005   0.10815
H          H       0.72930   0.27848   0.47218   0.12163
H          H       0.62617   0.38015   0.46006   0.12927
H          H       0.44662   0.17795   0.37449   0.11174
H          H       0.55011   0.07675   0.38618   0.11678
H          H       0.93035   0.02249   0.61438   0.09847
H          H       0.91387   0.98556   0.68704   0.11534
H          H       0.70487   0.79141   0.62022   0.11488
H          H       0.72028   0.83117   0.54870   0.11893
H          H       0.14769   0.85095   0.39806   0.10566
H          H       0.24866   0.74571   0.39264   0.12234
H          H       0.09359   0.58139   0.45089   0.12564
H          H       0.98887   0.68416   0.45324   0.11518
H          H       0.27295   0.51952   0.83658   0.13438
H          H       0.36889   0.45347   0.78021   0.13953
H          H       0.64740   0.30217   0.80212   0.13056
H          H       0.70605   0.20664   0.86076   0.13043
H          H       0.61636   0.12847   0.00647   0.14078
H          H       0.52116   0.19833   0.06289   0.13854
H          H       0.37324   0.47643   0.07404   0.13219
H          H       0.31451   0.57091   0.01530   0.13071
H          H       0.45567   0.39564   0.90651   0.26748
H          H       0.50304   0.32363   0.95322   0.26851
H          H       0.41226   0.31919   0.74067   0.10798
H          H       0.44541   0.35534   0.67089   0.10564
H          H       0.67535   0.51200   0.74411   0.11153
H          H       0.64403   0.47150   0.81323   0.11538
H          H       0.77824   0.22779   0.97260   0.12207
H          H       0.87910   0.12405   0.96016   0.12824
H          H       0.67627   0.94671   0.87369   0.11313
H          H       0.57573   0.05080   0.88581   0.11862
H          H       0.52296   0.42872   0.11409   0.09853
H          H       0.48571   0.41280   0.18680   0.11565
H          H       0.29118   0.20420   0.12025   0.11450
H          H       0.33054   0.21939   0.04851   0.11855
H          H       0.35179   0.64945   0.89883   0.10666
H          H       0.24609   0.75023   0.89365   0.12225
H          H       0.08122   0.59335   0.95090   0.12519
H          H       0.18470   0.48937   0.95343   0.11388
H          H       0.03287   0.45499   0.83495   0.13801
H          H       0.09936   0.35818   0.89125   0.13785
H          H       0.31310   0.14135   0.89079   0.13437
H          H       0.40886   0.07525   0.83417   0.12773
H          H       0.42524   0.09203   0.66556   0.13739
H          H       0.35700   0.18658   0.60877   0.14105
H          H       0.14192   0.40300   0.60955   0.12816
H          H       0.04676   0.46956   0.66660   0.12968
H          H       0.19176   0.30302   0.77136   0.26614
H          H       0.26096   0.23922   0.72770   0.26440
H          H       0.07828   0.14216   0.86397   0.10775
H          H       0.03600   0.11193   0.93299   0.12463
H          H       0.24378   0.29713   0.00960   0.10829
H          H       0.28983   0.32137   0.94018   0.10563
H          H       0.35314   0.97099   0.69865   0.10441
H          H       0.45546   0.86800   0.69891   0.11043
H          H       0.63159   0.04415   0.80170   0.10930
H          H       0.52837   0.14605   0.80208   0.10631
H          H       0.35558   0.42261   0.63587   0.10926
H          H       0.38660   0.46403   0.56672   0.12462
H          H       0.20270   0.25509   0.49016   0.10798
H          H       0.17703   0.21005   0.55955   0.10522
H          H       0.81481   0.49007   0.71020   0.12332
H          H       0.91847   0.38719   0.71068   0.11728
H          H       0.01012   0.68564   0.78966   0.12334
H          H       0.11323   0.58245   0.78954   0.11736
H          H       0.98289   0.22812   0.66398   0.13750
H          H       0.04754   0.13058   0.71990   0.13825
H          H       0.19933   0.85329   0.69834   0.13155
H          H       0.29452   0.79453   0.63954   0.13151
H          H       0.37162   0.88402   0.49359   0.14125
H          H       0.30161   0.97912   0.43722   0.13783
H          H       0.02311   0.12738   0.42621   0.13129
H          H       0.92923   0.18624   0.48526   0.13065
H          H       0.10404   0.04373   0.59344   0.26748
H          H       0.17633   0.99698   0.54676   0.26836
H          H       0.02794   0.85665   0.68680   0.11501
H          H       0.98736   0.82551   0.75599   0.11096
H          H       0.14535   0.05441   0.82931   0.10671
H          H       0.18258   0.08760   0.75998   0.10821
H          H       0.27068   0.72154   0.52782   0.12186
H          H       0.37381   0.61984   0.53989   0.12904
H          H       0.55331   0.82193   0.62544   0.11150
H          H       0.44986   0.92317   0.61379   0.11688
H          H       0.06967   0.97750   0.38570   0.09857
H          H       0.08606   0.01436   0.31299   0.11508
H          H       0.29524   0.20861   0.37987   0.11461
H          H       0.27978   0.16884   0.45137   0.11846
H          H       0.85246   0.14877   0.60195   0.10569
H          H       0.75146   0.25421   0.60734   0.12234
H          H       0.90650   0.41855   0.54912   0.12504
H          H       0.01139   0.31572   0.54674   0.11441
C          C       0.64245   0.53249   0.11345   0.17388
C          C       0.67408   0.51474   0.15620  -0.17111
C          C       0.62540   0.54820   0.18487  -0.17386
C          C       0.56387   0.58886   0.16091   0.18583
C          C       0.49504   0.62265   0.17542  -0.07128
C          C       0.44187   0.66819   0.15102   0.18162
C          C       0.37333   0.70631   0.16758  -0.18322
C          C       0.34432   0.75475   0.13822  -0.18641
C          C       0.39530   0.74456   0.10398   0.18287
C          C       0.38620   0.78886   0.06894  -0.08722
C          C       0.42738   0.77666   0.03321   0.17960
C          C       0.42105   0.82057   0.99685  -0.17778
C          C       0.46922   0.78557   0.96838  -0.18193
C          C       0.50568   0.71925   0.98646   0.17770
C          C       0.55249   0.66222   0.96639  -0.07843
C          C       0.58398   0.59585   0.98467   0.19440
C          C       0.62402   0.53152   0.96077  -0.18469
C          C       0.65395   0.48430   0.99057  -0.17696
C          C       0.63371   0.52229   0.03259   0.18309
C          C       0.66494   0.49970   0.07317  -0.07836
C          C       0.47536   0.60518   0.21814   0.09077
C          C       0.53057   0.63835   0.25878  -0.14247
C          C       0.51182   0.61724   0.29794  -0.08460
C          C       0.43914   0.56057   0.29719  -0.04829
C          C       0.38225   0.53001   0.25679  -0.07924
C          C       0.40000   0.55297   0.21794  -0.14010
C          C       0.42329   0.53074   0.33810   0.61308
C          C       0.32858   0.85386   0.07094   0.10199
C          C       0.24369   0.83391   0.04888  -0.14354
C          C       0.18741   0.89143   0.05581  -0.07574
C          C       0.21610   0.96961   0.08491  -0.05967
C          C       0.30196   0.99159   0.10490  -0.08835
C          C       0.35785   0.93382   0.09795  -0.14291
C          C       0.15445   0.02743   0.09481   0.60689
C          C       0.57159   0.67422   0.92287   0.09882
C          C       0.52708   0.62007   0.88393  -0.15006
C          C       0.54768   0.62896   0.84341  -0.07807
C          C       0.61364   0.69148   0.84170  -0.06139
C          C       0.65750   0.74696   0.88048  -0.07178
C          C       0.63558   0.73854   0.92090  -0.13723
C          C       0.63617   0.69645   0.79851   0.63665
C          C       0.72568   0.43790   0.07426   0.08982
C          C       0.70845   0.36361   0.09083  -0.14071
C          C       0.76691   0.30699   0.09337  -0.09627
C          C       0.84321   0.32253   0.07851  -0.03031
C          C       0.85968   0.39541   0.06072  -0.09682
C          C       0.80193   0.45280   0.05910  -0.13392
C          C       0.90632   0.26214   0.08113   0.55220
C          C       0.89355   0.61253   0.21084   0.17408
C          C       0.92482   0.59138   0.17071  -0.18196
C          C       0.89134   0.64012   0.14213  -0.18070
C          C       0.83784   0.69107   0.16356   0.17728
C          C       0.79155   0.74845   0.14497  -0.06694
C          C       0.73277   0.79186   0.16433   0.18946
C          C       0.68374   0.84749   0.14211  -0.17505
C          C       0.63580   0.88058   0.17073  -0.18035
C          C       0.65748   0.84563   0.21057   0.18392
C          C       0.62797   0.87267   0.24979  -0.07837
C          C       0.65324   0.84539   0.28966   0.17566
C          C       0.62006   0.86438   0.32942  -0.17521
C          C       0.65422   0.81651   0.35830  -0.16486
C          C       0.70979   0.76746   0.33752   0.18171
C          C       0.75347   0.70743   0.35512  -0.07010
C          C       0.80923   0.66106   0.33461   0.18230
C          C       0.85959   0.60654   0.35716  -0.17688
C          C       0.90733   0.57334   0.32846  -0.18923
C          C       0.88374   0.60705   0.28844   0.18051
C          C       0.91576   0.58264   0.24997  -0.08494
C          C       0.81287   0.76670   0.10240   0.08598
C          C       0.88451   0.82519   0.10406  -0.14279
C          C       0.90928   0.84161   0.06539  -0.08044
C          C       0.86339   0.79779   0.02384  -0.04132
C          C       0.79208   0.73840   0.02209  -0.09236
C          C       0.76608   0.72381   0.06105  -0.14782
C          C       0.89375   0.81668   0.98330   0.57685
C          C       0.56650   0.93403   0.24968   0.09909
C          C       0.58591   0.01272   0.27896  -0.14492
C          C       0.52872   0.07069   0.27878  -0.08774
C          C       0.44944   0.05104   0.24988  -0.06008
C          C       0.42969   0.97200   0.22072  -0.08980
C          C       0.48762   0.91471   0.22046  -0.14215
C          C       0.38814   0.11343   0.25008   0.65379
C          C       0.73543   0.68651   0.39776   0.08636
C          C       0.67692   0.61476   0.39613  -0.14156
C          C       0.65985   0.59087   0.43488  -0.07882
C          C       0.70367   0.63671   0.47640  -0.04365
C          C       0.76237   0.70873   0.47812  -0.09059
C          C       0.77787   0.73386   0.43909  -0.14933
C          C       0.68425   0.60682   0.51707   0.57939
C          C       0.97754   0.52144   0.25012   0.09933
C          C       0.11980   0.48995   0.27248  -0.08233
C          C       0.06186   0.54723   0.27234  -0.14197
C          C       0.09399   0.40560   0.24997  -0.06429
C          C       0.00971   0.37965   0.22756  -0.08112
C          C       0.95208   0.43720   0.22765  -0.14458
C          C       0.15557   0.34395   0.25005   0.64409
C          C       0.96655   0.85727   0.38627   0.17494
C          C       0.98375   0.82540   0.34348  -0.16768
C          C       0.95075   0.87458   0.31497  -0.17359
C          C       0.91056   0.93636   0.33899   0.18110
C          C       0.87681   0.00512   0.32442  -0.07087
C          C       0.83118   0.05815   0.34876   0.17958
C          C       0.79273   0.12641   0.33213  -0.18291
C          C       0.74445   0.15542   0.36159  -0.18562
C          C       0.75508   0.10467   0.39593   0.18094
C          C       0.71111   0.11387   0.43110  -0.08531
C          C       0.72330   0.07247   0.46675   0.17960
C          C       0.67940   0.07866   0.50310  -0.17784
C          C       0.71459   0.03054   0.53158  -0.18272
C          C       0.78099   0.99424   0.51355   0.17818
C          C       0.83853   0.94790   0.53368  -0.07783
C          C       0.90484   0.91648   0.51534   0.19430
C          C       0.96899   0.87590   0.53905  -0.18372
C          C       0.01575   0.84567   0.50909  -0.17544
C          C       0.97764   0.86627   0.46717   0.18353
C          C      -0.00048   0.83468   0.42650  -0.07739
C          C       0.89429   0.02462   0.28168   0.09062
C          C       0.94733   0.09950   0.28197  -0.13801
C          C       0.97030   0.11704   0.24311  -0.08246
C          C       0.93945   0.06033   0.20273  -0.05092
C          C       0.88213   0.98805   0.20192  -0.08075
C          C       0.86069   0.96944   0.24105  -0.14415
C          C       0.96882   0.07650   0.16173   0.61401
C          C       0.64639   0.17189   0.42929   0.09915
C          C       0.66710   0.25686   0.45104  -0.14569
C          C       0.60985   0.31357   0.44428  -0.07534
C          C       0.53102   0.28525   0.41547  -0.05728
C          C       0.50861   0.19935   0.39571  -0.08591
C          C       0.56603   0.14304   0.40246  -0.14766
C          C       0.47263   0.34693   0.40565   0.60283
C          C       0.82659   0.92889   0.57721   0.09989
C          C       0.88110   0.97290   0.61618  -0.15007
C          C       0.87187   0.95217   0.65662  -0.07684
C          C       0.80911   0.88649   0.65824  -0.06322
C          C       0.75354   0.84269   0.61939  -0.07126
C          C       0.76218   0.86501   0.57910  -0.13586
C          C       0.80358   0.86451   0.70148   0.63964
C          C       0.06103   0.77372   0.42530   0.08981
C          C       0.13501   0.79089   0.40855  -0.14078
C          C       0.19176   0.73269   0.40587  -0.09546
C          C       0.17686   0.65674   0.42108  -0.03188
C          C       0.10428   0.64028   0.43903  -0.09488
C          C       0.04656   0.69764   0.44066  -0.13154
C          C       0.23676   0.59363   0.41821   0.55156
C          C       0.35755   0.46751   0.88655   0.17399
C          C       0.32591   0.48524   0.84379  -0.17143
C          C       0.37457   0.45177   0.81512  -0.17369
C          C       0.43610   0.41113   0.83909   0.18534
C          C       0.50494   0.37731   0.82460  -0.07113
C          C       0.55813   0.33180   0.84900   0.18129
C          C       0.62667   0.29369   0.83242  -0.18360
C          C       0.65568   0.24525   0.86179  -0.18634
C          C       0.60472   0.25544   0.89603   0.18345
C          C       0.61383   0.21113   0.93105  -0.08691
C          C       0.57265   0.22332   0.96678   0.17940
C          C       0.57895   0.17943   0.00315  -0.17797
C          C       0.53078   0.21444   0.03161  -0.18175
C          C       0.49434   0.28073   0.01348   0.17869
C          C       0.44747   0.33773   0.03350  -0.07940
C          C       0.41605   0.40418   0.01529   0.19375
C          C       0.37600   0.46848   0.03922  -0.18408
C          C       0.34605   0.51571   0.00942  -0.17722
C          C       0.36629   0.47774   0.96740   0.18329
C          C       0.33506   0.50029   0.92682  -0.07874
C          C       0.52464   0.39482   0.78188   0.09085
C          C       0.46941   0.36164   0.74124  -0.14223
C          C       0.48813   0.38278   0.70209  -0.08361
C          C       0.56077   0.43940   0.70283  -0.04827
C          C       0.61768   0.47005   0.74323  -0.07997
C          C       0.59998   0.44703   0.78209  -0.13922
C          C       0.57666   0.46898   0.66190   0.61263
C          C       0.67142   0.14614   0.92905   0.10194
C          C       0.75630   0.16609   0.95114  -0.14606
C          C       0.81255   0.10855   0.94419  -0.07632
C          C       0.78387   0.03040   0.91508  -0.05833
C          C       0.69798   0.00838   0.89508  -0.08859
C          C       0.64208   0.06617   0.90204  -0.14362
C          C       0.84555   0.97260   0.90510   0.60434
C          C       0.42832   0.32569   0.07698   0.09967
C          C       0.47284   0.37985   0.11590  -0.15018
C          C       0.45216   0.37087   0.15642  -0.07839
C          C       0.38629   0.30837   0.15827  -0.06248
C          C       0.34243   0.25292   0.11939  -0.07282
C          C       0.36433   0.26135   0.07894  -0.13650
C          C       0.36379   0.30320   0.20155   0.63560
C          C       0.27433   0.56207   0.92573   0.09031
C          C       0.29157   0.63634   0.90916  -0.14100
C          C       0.23313   0.69298   0.90665  -0.09635
C          C       0.15685   0.67751   0.92152  -0.03010
C          C       0.14034   0.60459   0.93928  -0.09728
C          C       0.19807   0.54717   0.94089  -0.13381
C          C       0.09373   0.73795   0.91887   0.55172
C          C       0.10646   0.38746   0.78917   0.17227
C          C       0.07519   0.40861   0.82929  -0.18214
C          C       0.10866   0.35986   0.85788  -0.18075
C          C       0.16217   0.30889   0.83643   0.17724
C          C       0.20847   0.25151   0.85499  -0.06670
C          C       0.26725   0.20809   0.83564   0.18969
C          C       0.31629   0.15249   0.85788  -0.17434
C          C       0.36424   0.11937   0.82927  -0.17966
C          C       0.34260   0.15427   0.78942   0.18341
C          C       0.37216   0.12723   0.75021  -0.07917
C          C       0.34686   0.15456   0.71036   0.17531
C          C       0.38000   0.13557   0.67059  -0.17479
C          C       0.34578   0.18343   0.64172  -0.16491
C          C       0.29020   0.23248   0.66250   0.18067
C          C       0.24649   0.29248   0.64489  -0.06981
C          C       0.19077   0.33889   0.66539   0.18223
C          C       0.14041   0.39343   0.64284  -0.17724
C          C       0.09269   0.42667   0.67156  -0.18907
C          C       0.11629   0.39294   0.71157   0.17898
C          C       0.08422   0.41731   0.75002  -0.08170
C          C       0.18720   0.23331   0.89757   0.08632
C          C       0.11553   0.17487   0.89589  -0.14259
C          C       0.09076   0.15850   0.93457  -0.08071
C          C       0.13669   0.20229   0.97611  -0.04179
C          C       0.20801   0.26168   0.97787  -0.09250
C          C       0.23401   0.27625   0.93890  -0.14760
C          C       0.10611   0.18331   0.01657   0.57767
C          C       0.43365   0.06582   0.75032   0.10003
C          C       0.41430   0.98713   0.72105  -0.14440
C          C       0.47148   0.92916   0.72123  -0.08765
C          C       0.55073   0.94887   0.75015  -0.06018
C          C       0.57044   0.02784   0.77927  -0.08843
C          C       0.51252   0.08509   0.77952  -0.14287
C          C       0.61188   0.88655   0.74998   0.65197
C          C       0.26452   0.31344   0.60225   0.08713
C          C       0.32302   0.38521   0.60392  -0.14215
C          C       0.34015   0.40915   0.56519  -0.07951
C          C       0.29633   0.36324   0.52366  -0.04320
C          C       0.23763   0.29125   0.52190  -0.08989
C          C       0.22209   0.26609   0.56091  -0.14966
C          C       0.31599   0.39317   0.48309   0.57980
C          C       0.02241   0.47850   0.74986   0.09914
C          C       0.88013   0.51000   0.72748  -0.08073
C          C       0.93809   0.45274   0.72765  -0.14178
C          C       0.90606   0.59434   0.74998  -0.06367
C          C       0.99028   0.62028   0.77239  -0.08125
C          C       0.04786   0.56272   0.77233  -0.14428
C          C       0.84474   0.65594   0.74998   0.64335
C          C       0.03348   0.14270   0.61374   0.17509
C          C       0.01628   0.17459   0.65653  -0.16754
C          C       0.04927   0.12542   0.68505  -0.17416
C          C       0.08944   0.06362   0.66103   0.18121
C          C       0.12320   0.99486   0.67559  -0.07170
C          C       0.16882   0.94185   0.65126   0.17972
C          C       0.20727   0.87358   0.66788  -0.18283
C          C       0.25555   0.84457   0.63842  -0.18578
C          C       0.24491   0.89532   0.60408   0.18065
C          C       0.28885   0.88610   0.56891  -0.08600
C          C       0.27671   0.92750   0.53327   0.17867
C          C       0.32061   0.92132   0.49692  -0.17788
C          C       0.28543   0.96945   0.46845  -0.18306
C          C       0.21904   0.00577   0.48648   0.17835
C          C       0.16151   0.05211   0.46635  -0.07709
C          C       0.09516   0.08350   0.48468   0.19282
C          C       0.03103   0.12409   0.46097  -0.18312
C          C       0.98427   0.15431   0.49092  -0.17524
C          C       0.02237   0.13368   0.53283   0.18330
C          C       0.00056   0.16525   0.57351  -0.07700
C          C       0.10569   0.97536   0.71833   0.09074
C          C       0.05261   0.90048   0.71802  -0.13839
C          C       0.02968   0.88294   0.75689  -0.08361
C          C       0.06057   0.93964   0.79730  -0.05000
C          C       0.11783   0.01191   0.79807  -0.08156
C          C       0.13927   0.03057   0.75895  -0.14402
C          C       0.03129   0.92344   0.83832   0.61295
C          C       0.35357   0.82808   0.57070   0.10065
C          C       0.33292   0.74310   0.54894  -0.14646
C          C       0.39019   0.68640   0.55569  -0.07441
C          C       0.46901   0.71470   0.58451  -0.05766
C          C       0.49136   0.80059   0.60424  -0.08480
C          C       0.43394   0.85690   0.59751  -0.14725
C          C       0.52752   0.65339   0.59452   0.60247
C          C       0.17343   0.07115   0.42283   0.09805
C          C       0.11890   0.02713   0.38386  -0.15072
C          C       0.12815   0.04783   0.34341  -0.07720
C          C       0.19098   0.11353   0.34181  -0.06236
C          C       0.24653   0.15732   0.38067  -0.07208
C          C       0.23786   0.13502   0.42097  -0.13539
C          C       0.19672   0.13573   0.29855   0.63916
C          C       0.93911   0.22617   0.57470   0.08975
C          C       0.86517   0.20885   0.59147  -0.14312
C          C       0.80842   0.26704   0.59411  -0.09541
C          C       0.82334   0.34298   0.57889  -0.03120
C          C       0.89595   0.35959   0.56096  -0.09521
C          C       0.95368   0.30224   0.55934  -0.13252
C          C       0.76283   0.40585   0.58169   0.55573
N          N       0.57873   0.58084   0.11832  -0.26668
N          N       0.45281   0.69034   0.11156  -0.41023
N          N       0.47978   0.71694   0.02593  -0.26266
N          N       0.58783   0.58757   0.02798  -0.40467
N          N       0.84034   0.67191   0.20500  -0.26788
N          N       0.71575   0.79088   0.20606  -0.41963
N          N       0.70878   0.78815   0.29629  -0.27140
N          N       0.82481   0.66117   0.29276  -0.41728
N          N       0.91859   0.92137   0.38158  -0.26923
N          N       0.80929   0.04717   0.38825  -0.41130
N          N       0.78302   0.01994   0.47399  -0.26541
N          N       0.91278   0.91266   0.47198  -0.40580
N          N       0.42127   0.41917   0.88168  -0.26650
N          N       0.54720   0.30966   0.88845  -0.41048
N          N       0.52027   0.28305   0.97404  -0.26336
N          N       0.41220   0.41249   0.97200  -0.40422
N          N       0.15967   0.32809   0.79501  -0.26747
N          N       0.28431   0.20904   0.79391  -0.41977
N          N       0.29129   0.21180   0.70374  -0.26999
N          N       0.17523   0.33882   0.70725  -0.41643
N          N       0.08143   0.07859   0.61844  -0.26954
N          N       0.19070   0.95283   0.61176  -0.41198
N          N       0.21700   0.98006   0.52604  -0.26584
N          N       0.08722   0.08730   0.52803  -0.40511
O          O       0.37300   0.45857   0.33319  -0.78456
O          O       0.45538   0.57146   0.37637  -0.55780
O          O       0.17966   0.09571   0.12546  -0.75657
O          O       0.07915   0.01035   0.07380  -0.57432
O          O       0.70364   0.74505   0.79642  -0.74638
O          O       0.58923   0.65160   0.76334  -0.61968
O          O       0.90454   0.21048   0.10814  -0.63002
O          O       0.96176   0.26232   0.05634  -0.62163
O          O       0.85973   0.77665   0.94435  -0.60702
O          O       0.95696   0.87702   0.98944  -0.62840
O          O       0.31472   0.09053   0.22514  -0.68108
O          O       0.41151   0.18664   0.27505  -0.67583
O          O       0.62696   0.54094   0.51095  -0.62984
O          O       0.72271   0.64220   0.55605  -0.60875
O          O       0.22974   0.36837   0.27355  -0.65969
O          O       0.13107   0.26989   0.22662  -0.65692
O          O       0.04119   0.12701   0.16676  -0.78844
O          O       0.92898   0.04418   0.12358  -0.55449
O          O       0.40423   0.32156   0.37505  -0.75719
O          O       0.49011   0.42227   0.42675  -0.57185
O          O       0.75514   0.79697   0.70350  -0.74714
O          O       0.84783   0.91160   0.73671  -0.62109
O          O       0.23725   0.53860   0.44323  -0.61905
O          O       0.28801   0.59491   0.39088  -0.62961
O          O       0.62716   0.54109   0.66672  -0.78485
O          O       0.54440   0.42830   0.62362  -0.55712
O          O       0.82057   0.90426   0.87457  -0.75360
O          O       0.92101   0.99001   0.92623  -0.57598
O          O       0.29661   0.25432   0.20353  -0.74398
O          O       0.41048   0.34821   0.23685  -0.62107
O          O       0.09560   0.78969   0.89185  -0.63015
O          O       0.03829   0.73777   0.94360  -0.62129
O          O       0.14038   0.22335   0.05557  -0.60954
O          O       0.04276   0.12328   0.01053  -0.62637
O          O       0.68547   0.90922   0.77490  -0.68135
O          O       0.58832   0.81344   0.72496  -0.67385
O          O       0.37344   0.45877   0.48919  -0.62798
O          O       0.27720   0.35797   0.44402  -0.61086
O          O       0.77049   0.63164   0.72662  -0.65821
O          O       0.86906   0.73004   0.77346  -0.65754
O          O       0.95902   0.87287   0.83330  -0.78647
O          O       0.07129   0.95608   0.87648  -0.55590
O          O       0.59570   0.67876   0.62520  -0.75299
O          O       0.50985   0.57788   0.57343  -0.57338
O          O       0.24513   0.20304   0.29646  -0.74455
O          O       0.15220   0.08849   0.26335  -0.62386
O          O       0.76287   0.46149   0.55702  -0.62307
O          O       0.71103   0.40360   0.60856  -0.63249

