data_crystal

_audit_creation_method 'AiiDA-DDEC plugin'

_cell_length_a        25.74270
_cell_length_b        25.74270
_cell_length_c        25.74270

_cell_angle_alpha     90.00000
_cell_angle_beta     90.00000
_cell_angle_gamma     90.00000

_symmetry_space_group_name_Hall 'P 1'
_symmetry_space_group_name_H-M  'P 1'

loop_
_symmetry_equiv_pos_as_xyz
 'x,y,z'

loop_
_atom_site_label
_atom_site_type_symbol
_atom_site_fract_x
_atom_site_fract_y
_atom_site_fract_z
_atom_site_charge
Zn         Zn      0.18634   0.82868   0.23249   0.96619
Zn         Zn      0.31366   0.17132   0.73249   0.96619
Zn         Zn      0.81366   0.32868   0.26751   0.96616
Zn         Zn      0.68635   0.67132   0.76751   0.96619
Zn         Zn      0.23249   0.18634   0.82868   0.96618
Zn         Zn      0.73249   0.31366   0.17132   0.96620
Zn         Zn      0.26751   0.81366   0.32868   0.96615
Zn         Zn      0.76751   0.68635   0.67132   0.96621
Zn         Zn      0.82868   0.23249   0.18634   0.96618
Zn         Zn      0.17132   0.73249   0.31366   0.96619
Zn         Zn      0.32868   0.26751   0.81366   0.96616
Zn         Zn      0.67132   0.76751   0.68635   0.96619
Zn         Zn      0.81366   0.17132   0.76751   0.96616
Zn         Zn      0.68635   0.82868   0.26751   0.96616
Zn         Zn      0.18634   0.67132   0.73249   0.96626
Zn         Zn      0.31366   0.32868   0.23249   0.96619
Zn         Zn      0.76751   0.81366   0.17132   0.96617
Zn         Zn      0.26751   0.68635   0.82868   0.96617
Zn         Zn      0.73249   0.18634   0.67132   0.96627
Zn         Zn      0.23249   0.31366   0.32868   0.96618
Zn         Zn      0.17132   0.76751   0.81366   0.96615
Zn         Zn      0.82868   0.26751   0.68635   0.96617
Zn         Zn      0.67132   0.73249   0.18634   0.96627
Zn         Zn      0.32868   0.23249   0.31366   0.96618
Zn         Zn      0.26536   0.73464   0.23464   0.94425
Zn         Zn      0.23464   0.26536   0.73464   0.94425
Zn         Zn      0.73464   0.23464   0.26536   0.94424
Zn         Zn      0.76536   0.76536   0.76536   0.94413
Zn         Zn      0.73464   0.26536   0.76536   0.94423
Zn         Zn      0.76536   0.73464   0.26536   0.94423
Zn         Zn      0.26536   0.76536   0.73464   0.94422
Zn         Zn      0.23464   0.23464   0.23464   0.94421
H          H       0.17553   0.83927   0.06446   0.12603
H          H       0.16850   0.82053   0.96883   0.12567
H          H       0.27060   0.70348   0.08381   0.12743
H          H       0.26428   0.68525   0.98822   0.12345
H          H       0.32447   0.16073   0.56446   0.12602
H          H       0.33150   0.17947   0.46883   0.12567
H          H       0.22940   0.29652   0.58381   0.12746
H          H       0.23572   0.31475   0.48822   0.12348
H          H       0.82447   0.33927   0.43554   0.12600
H          H       0.83150   0.32053   0.53117   0.12574
H          H       0.72940   0.20348   0.41619   0.12740
H          H       0.73572   0.18525   0.51178   0.12349
H          H       0.67553   0.66073   0.93554   0.12595
H          H       0.66850   0.67947   0.03117   0.12561
H          H       0.77060   0.79652   0.91619   0.12744
H          H       0.76428   0.81475   0.01178   0.12351
H          H       0.06446   0.17553   0.83927   0.12601
H          H       0.96883   0.16850   0.82053   0.12568
H          H       0.08381   0.27060   0.70348   0.12740
H          H       0.98822   0.26428   0.68525   0.12346
H          H       0.56446   0.32447   0.16073   0.12602
H          H       0.46883   0.33150   0.17947   0.12568
H          H       0.58381   0.22940   0.29652   0.12746
H          H       0.48822   0.23572   0.31475   0.12348
H          H       0.43554   0.82447   0.33927   0.12601
H          H       0.53117   0.83150   0.32053   0.12574
H          H       0.41619   0.72940   0.20348   0.12739
H          H       0.51178   0.73572   0.18525   0.12349
H          H       0.93554   0.67553   0.66073   0.12595
H          H       0.03117   0.66850   0.67947   0.12561
H          H       0.91619   0.77060   0.79652   0.12746
H          H       0.01178   0.76428   0.81475   0.12351
H          H       0.83927   0.06446   0.17553   0.12603
H          H       0.82053   0.96883   0.16850   0.12567
H          H       0.70348   0.08381   0.27060   0.12743
H          H       0.68525   0.98822   0.26428   0.12346
H          H       0.16073   0.56446   0.32447   0.12602
H          H       0.17947   0.46883   0.33150   0.12568
H          H       0.29652   0.58381   0.22940   0.12746
H          H       0.31475   0.48822   0.23572   0.12348
H          H       0.33927   0.43554   0.82447   0.12601
H          H       0.32053   0.53117   0.83150   0.12574
H          H       0.20348   0.41619   0.72940   0.12739
H          H       0.18525   0.51178   0.73572   0.12349
H          H       0.66073   0.93554   0.67553   0.12594
H          H       0.67947   0.03117   0.66850   0.12562
H          H       0.79652   0.91619   0.77060   0.12746
H          H       0.81475   0.01178   0.76428   0.12351
H          H       0.82447   0.16073   0.93554   0.12599
H          H       0.83150   0.17947   0.03117   0.12569
H          H       0.72940   0.29652   0.91619   0.12739
H          H       0.73572   0.31475   0.01178   0.12348
H          H       0.67553   0.83927   0.43554   0.12599
H          H       0.66850   0.82053   0.53117   0.12572
H          H       0.77060   0.70348   0.41619   0.12741
H          H       0.76428   0.68525   0.51178   0.12348
H          H       0.17553   0.66073   0.56446   0.12601
H          H       0.16850   0.67947   0.46883   0.12565
H          H       0.27060   0.79652   0.58381   0.12749
H          H       0.26428   0.81475   0.48822   0.12349
H          H       0.32447   0.33927   0.06446   0.12602
H          H       0.33150   0.32053   0.96883   0.12566
H          H       0.22940   0.20348   0.08381   0.12744
H          H       0.23572   0.18525   0.98822   0.12346
H          H       0.93554   0.82447   0.16073   0.12599
H          H       0.03117   0.83150   0.17947   0.12569
H          H       0.91619   0.72940   0.29652   0.12740
H          H       0.01178   0.73572   0.31475   0.12348
H          H       0.43554   0.67553   0.83927   0.12601
H          H       0.53117   0.66850   0.82053   0.12572
H          H       0.41619   0.77060   0.70348   0.12741
H          H       0.51178   0.76428   0.68525   0.12348
H          H       0.56446   0.17553   0.66073   0.12601
H          H       0.46883   0.16850   0.67947   0.12564
H          H       0.58381   0.27060   0.79652   0.12746
H          H       0.48822   0.26428   0.81475   0.12349
H          H       0.06446   0.32447   0.33927   0.12602
H          H       0.96883   0.33150   0.32053   0.12567
H          H       0.08381   0.22940   0.20348   0.12744
H          H       0.98822   0.23572   0.18525   0.12348
H          H       0.16073   0.93554   0.82447   0.12599
H          H       0.17947   0.03117   0.83150   0.12569
H          H       0.29652   0.91619   0.72940   0.12739
H          H       0.31475   0.01178   0.73572   0.12348
H          H       0.83927   0.43554   0.67553   0.12600
H          H       0.82053   0.53117   0.66850   0.12572
H          H       0.70348   0.41619   0.77060   0.12744
H          H       0.68525   0.51178   0.76428   0.12348
H          H       0.66073   0.56446   0.17553   0.12601
H          H       0.67947   0.46883   0.16850   0.12565
H          H       0.79652   0.58381   0.27060   0.12749
H          H       0.81475   0.48822   0.26428   0.12349
H          H       0.33927   0.06446   0.32447   0.12601
H          H       0.32053   0.96883   0.33150   0.12567
H          H       0.20348   0.08381   0.22940   0.12744
H          H       0.18525   0.98822   0.23572   0.12347
C          C       0.22832   0.78200   0.13673   0.59262
C          C       0.22386   0.77261   0.07956  -0.03428
C          C       0.19466   0.80564   0.04742  -0.09768
C          C       0.19081   0.79529   0.99438  -0.09809
C          C       0.24868   0.72894   0.05822  -0.09797
C          C       0.24516   0.71882   0.00533  -0.09465
C          C       0.21413   0.74120   0.91610   0.59826
C          C       0.21628   0.75196   0.97310  -0.03502
C          C       0.27168   0.21800   0.63673   0.59266
C          C       0.27614   0.22739   0.57956  -0.03426
C          C       0.30534   0.19436   0.54742  -0.09771
C          C       0.30919   0.20471   0.49438  -0.09812
C          C       0.25132   0.27106   0.55822  -0.09797
C          C       0.25484   0.28118   0.50533  -0.09468
C          C       0.28587   0.25880   0.41610   0.59828
C          C       0.28372   0.24804   0.47310  -0.03508
C          C       0.77168   0.28200   0.36327   0.59276
C          C       0.77614   0.27261   0.42044  -0.03433
C          C       0.80534   0.30564   0.45258  -0.09764
C          C       0.80919   0.29529   0.50562  -0.09812
C          C       0.75132   0.22894   0.44178  -0.09788
C          C       0.75484   0.21882   0.49467  -0.09475
C          C       0.78587   0.24120   0.58390   0.59825
C          C       0.78372   0.25196   0.52690  -0.03509
C          C       0.72832   0.71800   0.86327   0.59267
C          C       0.72386   0.72739   0.92044  -0.03426
C          C       0.69466   0.69436   0.95258  -0.09772
C          C       0.69081   0.70471   0.00562  -0.09801
C          C       0.74868   0.77107   0.94178  -0.09794
C          C       0.74516   0.78119   0.99467  -0.09465
C          C       0.71413   0.75880   0.08390   0.59825
C          C       0.71629   0.74804   0.02690  -0.03501
C          C       0.13673   0.22832   0.78200   0.59270
C          C       0.07956   0.22386   0.77261  -0.03435
C          C       0.04742   0.19466   0.80564  -0.09760
C          C       0.99438   0.19081   0.79529  -0.09810
C          C       0.05822   0.24868   0.72894  -0.09793
C          C       0.00533   0.24516   0.71882  -0.09467
C          C       0.91610   0.21413   0.74120   0.59822
C          C       0.97310   0.21628   0.75196  -0.03503
C          C       0.63673   0.27168   0.21800   0.59269
C          C       0.57956   0.27614   0.22739  -0.03426
C          C       0.54742   0.30534   0.19436  -0.09771
C          C       0.49438   0.30919   0.20471  -0.09812
C          C       0.55822   0.25132   0.27107  -0.09799
C          C       0.50533   0.25484   0.28118  -0.09467
C          C       0.41610   0.28587   0.25880   0.59829
C          C       0.47310   0.28372   0.24804  -0.03506
C          C       0.36327   0.77168   0.28200   0.59276
C          C       0.42044   0.77614   0.27261  -0.03435
C          C       0.45258   0.80534   0.30564  -0.09763
C          C       0.50562   0.80919   0.29529  -0.09813
C          C       0.44178   0.75132   0.22894  -0.09787
C          C       0.49467   0.75484   0.21882  -0.09478
C          C       0.58390   0.78587   0.24120   0.59832
C          C       0.52690   0.78372   0.25196  -0.03508
C          C       0.86327   0.72832   0.71800   0.59263
C          C       0.92044   0.72386   0.72739  -0.03430
C          C       0.95258   0.69466   0.69436  -0.09773
C          C       0.00562   0.69081   0.70471  -0.09802
C          C       0.94178   0.74868   0.77107  -0.09793
C          C       0.99467   0.74516   0.78119  -0.09464
C          C       0.08390   0.71413   0.75880   0.59828
C          C       0.02690   0.71629   0.74804  -0.03501
C          C       0.78200   0.13673   0.22832   0.59262
C          C       0.77261   0.07956   0.22386  -0.03427
C          C       0.80564   0.04742   0.19466  -0.09768
C          C       0.79529   0.99438   0.19081  -0.09809
C          C       0.72894   0.05822   0.24868  -0.09798
C          C       0.71882   0.00533   0.24516  -0.09465
C          C       0.74120   0.91610   0.21413   0.59823
C          C       0.75196   0.97310   0.21628  -0.03503
C          C       0.21800   0.63673   0.27168   0.59271
C          C       0.22739   0.57956   0.27614  -0.03428
C          C       0.19436   0.54742   0.30534  -0.09771
C          C       0.20471   0.49438   0.30919  -0.09812
C          C       0.27106   0.55822   0.25132  -0.09796
C          C       0.28118   0.50533   0.25484  -0.09470
C          C       0.25880   0.41610   0.28587   0.59827
C          C       0.24804   0.47310   0.28372  -0.03506
C          C       0.28200   0.36327   0.77168   0.59278
C          C       0.27261   0.42044   0.77614  -0.03437
C          C       0.30564   0.45258   0.80534  -0.09765
C          C       0.29529   0.50562   0.80919  -0.09811
C          C       0.22894   0.44178   0.75132  -0.09786
C          C       0.21882   0.49467   0.75484  -0.09474
C          C       0.24120   0.58390   0.78587   0.59827
C          C       0.25196   0.52690   0.78372  -0.03511
C          C       0.71800   0.86327   0.72832   0.59259
C          C       0.72739   0.92044   0.72386  -0.03424
C          C       0.69436   0.95258   0.69466  -0.09770
C          C       0.70471   0.00562   0.69081  -0.09809
C          C       0.77107   0.94178   0.74868  -0.09797
C          C       0.78119   0.99467   0.74516  -0.09469
C          C       0.75880   0.08390   0.71413   0.59828
C          C       0.74804   0.02690   0.71629  -0.03491
C          C       0.77168   0.21800   0.86327   0.59279
C          C       0.77614   0.22739   0.92044  -0.03431
C          C       0.80534   0.19436   0.95258  -0.09764
C          C       0.80919   0.20471   0.00562  -0.09805
C          C       0.75132   0.27106   0.94178  -0.09792
C          C       0.75484   0.28118   0.99467  -0.09464
C          C       0.78587   0.25880   0.08390   0.59828
C          C       0.78372   0.24804   0.02690  -0.03511
C          C       0.72832   0.78200   0.36327   0.59261
C          C       0.72386   0.77261   0.42044  -0.03422
C          C       0.69466   0.80564   0.45258  -0.09764
C          C       0.69081   0.79529   0.50562  -0.09816
C          C       0.74868   0.72894   0.44178  -0.09797
C          C       0.74516   0.71882   0.49467  -0.09469
C          C       0.71413   0.74120   0.58390   0.59823
C          C       0.71629   0.75196   0.52690  -0.03504
C          C       0.22832   0.71800   0.63673   0.59267
C          C       0.22386   0.72739   0.57956  -0.03430
C          C       0.19466   0.69436   0.54742  -0.09773
C          C       0.19081   0.70471   0.49438  -0.09812
C          C       0.24868   0.77107   0.55822  -0.09792
C          C       0.24516   0.78119   0.50533  -0.09472
C          C       0.21413   0.75880   0.41610   0.59826
C          C       0.21628   0.74804   0.47310  -0.03504
C          C       0.27168   0.28200   0.13673   0.59272
C          C       0.27614   0.27261   0.07956  -0.03430
C          C       0.30534   0.30564   0.04742  -0.09766
C          C       0.30919   0.29529   0.99438  -0.09811
C          C       0.25132   0.22894   0.05822  -0.09800
C          C       0.25484   0.21882   0.00533  -0.09461
C          C       0.28587   0.24120   0.91610   0.59824
C          C       0.28372   0.25196   0.97310  -0.03504
C          C       0.86327   0.77168   0.21800   0.59283
C          C       0.92044   0.77614   0.22739  -0.03440
C          C       0.95258   0.80534   0.19436  -0.09763
C          C       0.00562   0.80919   0.20471  -0.09806
C          C       0.94178   0.75132   0.27106  -0.09788
C          C       0.99467   0.75484   0.28118  -0.09464
C          C       0.08390   0.78587   0.25880   0.59827
C          C       0.02690   0.78372   0.24804  -0.03510
C          C       0.36327   0.72832   0.78200   0.59252
C          C       0.42044   0.72386   0.77261  -0.03419
C          C       0.45258   0.69466   0.80564  -0.09766
C          C       0.50562   0.69081   0.79529  -0.09816
C          C       0.44178   0.74868   0.72894  -0.09797
C          C       0.49467   0.74516   0.71882  -0.09471
C          C       0.58390   0.71413   0.74120   0.59825
C          C       0.52690   0.71629   0.75196  -0.03505
C          C       0.63673   0.22832   0.71800   0.59267
C          C       0.57956   0.22386   0.72739  -0.03431
C          C       0.54742   0.19466   0.69436  -0.09778
C          C       0.49438   0.19081   0.70471  -0.09806
C          C       0.55822   0.24868   0.77107  -0.09788
C          C       0.50533   0.24516   0.78119  -0.09471
C          C       0.41610   0.21413   0.75880   0.59828
C          C       0.47310   0.21628   0.74804  -0.03504
C          C       0.13673   0.27168   0.28200   0.59281
C          C       0.07956   0.27614   0.27261  -0.03431
C          C       0.04742   0.30534   0.30564  -0.09768
C          C       0.99438   0.30919   0.29529  -0.09808
C          C       0.05822   0.25132   0.22894  -0.09799
C          C       0.00533   0.25484   0.21882  -0.09466
C          C       0.91610   0.28587   0.24120   0.59825
C          C       0.97310   0.28372   0.25196  -0.03504
C          C       0.21800   0.86327   0.77168   0.59278
C          C       0.22739   0.92044   0.77614  -0.03433
C          C       0.19436   0.95258   0.80534  -0.09762
C          C       0.20471   0.00562   0.80919  -0.09806
C          C       0.27106   0.94178   0.75132  -0.09792
C          C       0.28118   0.99467   0.75484  -0.09466
C          C       0.25880   0.08390   0.78587   0.59828
C          C       0.24804   0.02690   0.78372  -0.03511
C          C       0.78200   0.36327   0.72832   0.59253
C          C       0.77261   0.42044   0.72386  -0.03415
C          C       0.80564   0.45258   0.69466  -0.09772
C          C       0.79529   0.50562   0.69081  -0.09816
C          C       0.72894   0.44178   0.74868  -0.09800
C          C       0.71882   0.49467   0.74516  -0.09469
C          C       0.74120   0.58390   0.71413   0.59822
C          C       0.75196   0.52690   0.71629  -0.03503
C          C       0.71800   0.63673   0.22832   0.59267
C          C       0.72739   0.57956   0.22386  -0.03426
C          C       0.69436   0.54742   0.19466  -0.09774
C          C       0.70471   0.49438   0.19081  -0.09813
C          C       0.77107   0.55822   0.24868  -0.09794
C          C       0.78119   0.50533   0.24516  -0.09471
C          C       0.75880   0.41610   0.21413   0.59828
C          C       0.74804   0.47310   0.21628  -0.03506
C          C       0.28200   0.13673   0.27168   0.59281
C          C       0.27261   0.07956   0.27614  -0.03433
C          C       0.30564   0.04742   0.30534  -0.09766
C          C       0.29529   0.99438   0.30919  -0.09810
C          C       0.22894   0.05822   0.25132  -0.09798
C          C       0.21882   0.00533   0.25484  -0.09467
C          C       0.24120   0.91610   0.28587   0.59826
C          C       0.25196   0.97310   0.28372  -0.03503
O          O       0.20026   0.81767   0.15689  -0.54210
O          O       0.17981   0.76557   0.88978  -0.53976
O          O       0.24725   0.70841   0.89867  -0.55066
O          O       0.26017   0.75259   0.16108  -0.54789
O          O       0.29974   0.18233   0.65689  -0.54214
O          O       0.32019   0.23443   0.38978  -0.53979
O          O       0.25275   0.29159   0.39867  -0.55066
O          O       0.23983   0.24741   0.66109  -0.54788
O          O       0.79974   0.31767   0.34311  -0.54212
O          O       0.82019   0.26557   0.61022  -0.53971
O          O       0.75275   0.20841   0.60133  -0.55071
O          O       0.73983   0.25259   0.33892  -0.54802
O          O       0.70026   0.68233   0.84311  -0.54221
O          O       0.67981   0.73443   0.11022  -0.53983
O          O       0.74725   0.79159   0.10133  -0.55063
O          O       0.76017   0.74741   0.83892  -0.54783
O          O       0.15689   0.20026   0.81767  -0.54212
O          O       0.88978   0.17981   0.76557  -0.53973
O          O       0.89867   0.24725   0.70841  -0.55065
O          O       0.16108   0.26017   0.75259  -0.54793
O          O       0.65689   0.29974   0.18233  -0.54216
O          O       0.38978   0.32019   0.23443  -0.53980
O          O       0.39867   0.25275   0.29159  -0.55068
O          O       0.66108   0.23983   0.24741  -0.54790
O          O       0.34311   0.79974   0.31767  -0.54208
O          O       0.61022   0.82019   0.26557  -0.53972
O          O       0.60133   0.75275   0.20841  -0.55077
O          O       0.33892   0.73983   0.25259  -0.54802
O          O       0.84311   0.70026   0.68233  -0.54221
O          O       0.11022   0.67981   0.73443  -0.53986
O          O       0.10133   0.74725   0.79159  -0.55063
O          O       0.83892   0.76017   0.74741  -0.54777
O          O       0.81767   0.15689   0.20026  -0.54210
O          O       0.76557   0.88978   0.17981  -0.53978
O          O       0.70841   0.89867   0.24725  -0.55062
O          O       0.75259   0.16108   0.26017  -0.54788
O          O       0.18233   0.65689   0.29974  -0.54215
O          O       0.23443   0.38978   0.32019  -0.53976
O          O       0.29159   0.39867   0.25275  -0.55069
O          O       0.24741   0.66109   0.23983  -0.54792
O          O       0.31767   0.34311   0.79974  -0.54210
O          O       0.26557   0.61022   0.82019  -0.53971
O          O       0.20841   0.60133   0.75275  -0.55071
O          O       0.25259   0.33892   0.73983  -0.54803
O          O       0.68233   0.84311   0.70026  -0.54219
O          O       0.73443   0.11022   0.67981  -0.53987
O          O       0.79159   0.10133   0.74725  -0.55062
O          O       0.74741   0.83892   0.76017  -0.54777
O          O       0.79974   0.18233   0.84311  -0.54216
O          O       0.82019   0.23443   0.11022  -0.53972
O          O       0.75275   0.29159   0.10133  -0.55071
O          O       0.73983   0.24741   0.83892  -0.54802
O          O       0.70026   0.81767   0.34311  -0.54212
O          O       0.67981   0.76557   0.61022  -0.53975
O          O       0.74725   0.70841   0.60133  -0.55067
O          O       0.76017   0.75259   0.33892  -0.54787
O          O       0.20026   0.68233   0.65689  -0.54219
O          O       0.17981   0.73443   0.38978  -0.53980
O          O       0.24725   0.79159   0.39867  -0.55064
O          O       0.26017   0.74741   0.66109  -0.54785
O          O       0.29974   0.31767   0.15689  -0.54214
O          O       0.32019   0.26557   0.88978  -0.53978
O          O       0.25275   0.20841   0.89867  -0.55063
O          O       0.23983   0.25259   0.16108  -0.54792
O          O       0.84311   0.79974   0.18233  -0.54217
O          O       0.11022   0.82019   0.23443  -0.53973
O          O       0.10133   0.75275   0.29159  -0.55070
O          O       0.83892   0.73983   0.24741  -0.54802
O          O       0.34311   0.70026   0.81767  -0.54210
O          O       0.61022   0.67981   0.76557  -0.53975
O          O       0.60133   0.74725   0.70841  -0.55066
O          O       0.33892   0.76017   0.75259  -0.54781
O          O       0.65689   0.20026   0.68233  -0.54220
O          O       0.38978   0.17981   0.73443  -0.53982
O          O       0.39867   0.24725   0.79159  -0.55064
O          O       0.66108   0.26017   0.74741  -0.54785
O          O       0.15689   0.29974   0.31767  -0.54217
O          O       0.88978   0.32019   0.26557  -0.53976
O          O       0.89867   0.25275   0.20841  -0.55066
O          O       0.16108   0.23983   0.25259  -0.54797
O          O       0.18233   0.84311   0.79974  -0.54212
O          O       0.23443   0.11022   0.82019  -0.53972
O          O       0.29159   0.10133   0.75275  -0.55071
O          O       0.24741   0.83892   0.73983  -0.54803
O          O       0.81767   0.34311   0.70026  -0.54211
O          O       0.76557   0.61022   0.67981  -0.53975
O          O       0.70841   0.60133   0.74725  -0.55065
O          O       0.75259   0.33892   0.76017  -0.54781
O          O       0.68233   0.65689   0.20026  -0.54220
O          O       0.73443   0.38978   0.17981  -0.53981
O          O       0.79159   0.39867   0.24725  -0.55064
O          O       0.74741   0.66108   0.26017  -0.54785
O          O       0.31767   0.15689   0.29974  -0.54217
O          O       0.26557   0.88978   0.32019  -0.53976
O          O       0.20841   0.89867   0.25275  -0.55066
O          O       0.25259   0.16108   0.23983  -0.54798
O          O       0.22147   0.77853   0.27853  -1.00871
O          O       0.27853   0.22147   0.77853  -1.00870
O          O       0.77853   0.27853   0.22147  -1.00871
O          O       0.72147   0.72147   0.72147  -1.00879
O          O       0.77853   0.22147   0.72147  -1.00875
O          O       0.72147   0.77853   0.22147  -1.00876
O          O       0.22147   0.72147   0.77853  -1.00874
O          O       0.27853   0.27853   0.27853  -1.00868

