data_crystal

_audit_creation_method 'AiiDA-DDEC plugin'

_cell_length_a        14.29647
_cell_length_b        20.11327
_cell_length_c        22.16455

_cell_angle_alpha     90.00000
_cell_angle_beta     90.00000
_cell_angle_gamma     90.00000

_symmetry_space_group_name_Hall 'P 1'
_symmetry_space_group_name_H-M  'P 1'

loop_
_symmetry_equiv_pos_as_xyz
 'x,y,z'

loop_
_atom_site_label
_atom_site_type_symbol
_atom_site_fract_x
_atom_site_fract_y
_atom_site_fract_z
_atom_site_charge
Zn         Zn      0.82624   0.19959   0.24395   0.79458
Zn         Zn      0.63175   0.22682   0.99800   0.78434
Zn         Zn      0.81250   0.34535   0.71043  -0.05880
Zn         Zn      0.17376   0.80041   0.24395   0.79480
Zn         Zn      0.36825   0.77319   0.99799   0.78436
Zn         Zn      0.18750   0.65463   0.71034  -0.05868
Zn         Zn      0.82624   0.80041   0.74395   0.79489
Zn         Zn      0.63175   0.77318   0.49799   0.78437
Zn         Zn      0.81250   0.65464   0.21037  -0.05869
Zn         Zn      0.17376   0.19959   0.74395   0.79460
Zn         Zn      0.36824   0.22682   0.49800   0.78438
Zn         Zn      0.18750   0.34535   0.21042  -0.05878
H          H       0.65887   0.31330   0.80076   0.31443
H          H       0.55676   0.30788   0.25640   0.10706
H          H       0.43805   0.39742   0.25255   0.09821
H          H       0.65034   0.53610   0.19504   0.08556
H          H       0.76865   0.44613   0.20087   0.10601
H          H       0.03194   0.13807   0.24498   0.12805
H          H       0.91145   0.28655   0.13541   0.13416
H          H       0.08794   0.25652   0.08963   0.13883
H          H       0.11086   0.05706   0.17117   0.14625
H          H       0.40641   0.05921   0.13104   0.14394
H          H       0.25007   0.24325   0.13737   0.11383
H          H       0.16773   0.96738   0.23466   0.11507
H          H       0.30783   0.82465   0.12858   0.12814
H          H       0.35058   0.94983   0.08360   0.13777
H          H       0.40089   0.27829   0.17339   0.12386
H          H       0.57038   0.31215   0.11976   0.12998
H          H       0.48466   0.12721   0.04957   0.12863
H          H       0.62491   0.96674   0.96113   0.11459
H          H       0.71067   0.87765   0.90443   0.09276
H          H       0.92441   0.01871   0.85654   0.11319
H          H       0.83989   0.10660   0.91521   0.12359
H          H       0.83486   0.38311   0.13276   0.10395
H          H       0.97083   0.45439   0.12914   0.09863
H          H       0.95664   0.45813   0.93426   0.09296
H          H       0.81834   0.38803   0.93696   0.10193
H          H       0.51298   0.14849   0.88805   0.12913
H          H       0.35289   0.20655   0.83757   0.14897
H          H       0.45888   0.32995   0.97665   0.11331
H          H       0.20340   0.25793   0.87868   0.15236
H          H       0.12929   0.46450   0.85378   0.13346
H          H       0.41483   0.41057   0.89167   0.12672
H          H       0.03820   0.26130   0.91428   0.13536
H          H       0.86432   0.26157   0.85741   0.13094
H          H       0.03464   0.40670   0.77610   0.10768
H          H       0.22273   0.54770   0.79309   0.09742
H          H       0.41830   0.64703   0.90210   0.10450
H          H       0.39886   0.51736   0.94463   0.12724
H          H       0.73988   0.09765   0.80532   0.10926
H          H       0.65622   0.98968   0.80271   0.10222
H          H       0.40696   0.09093   0.74219   0.10399
H          H       0.48905   0.19825   0.74947   0.11155
H          H       0.73400   0.42644   0.03806   0.10147
H          H       0.34112   0.68671   0.80076   0.31418
H          H       0.44325   0.69212   0.25640   0.10721
H          H       0.56195   0.60258   0.25255   0.09826
H          H       0.34967   0.46390   0.19504   0.08556
H          H       0.23136   0.55387   0.20087   0.10604
H          H       0.96807   0.86194   0.24496   0.12813
H          H       0.08855   0.71345   0.13539   0.13409
H          H       0.91206   0.74348   0.08962   0.13908
H          H       0.88915   0.94294   0.17116   0.14628
H          H       0.59360   0.94080   0.13102   0.14393
H          H       0.74992   0.75675   0.13736   0.11373
H          H       0.83229   0.03262   0.23465   0.11502
H          H       0.69217   0.17536   0.12859   0.12820
H          H       0.64942   0.05018   0.08360   0.13792
H          H       0.59912   0.72172   0.17339   0.12398
H          H       0.42963   0.68785   0.11976   0.12993
H          H       0.51533   0.87279   0.04956   0.12872
H          H       0.37509   0.03327   0.96114   0.11459
H          H       0.28934   0.12236   0.90443   0.09316
H          H       0.07559   0.98130   0.85654   0.11316
H          H       0.16011   0.89340   0.91521   0.12332
H          H       0.16514   0.61688   0.13275   0.10394
H          H       0.02915   0.54562   0.12914   0.09864
H          H       0.04335   0.54186   0.93426   0.09293
H          H       0.18166   0.61194   0.93695   0.10198
H          H       0.48701   0.85151   0.88805   0.12945
H          H       0.64711   0.79346   0.83756   0.14911
H          H       0.54113   0.67006   0.97665   0.11309
H          H       0.79661   0.74208   0.87867   0.15249
H          H       0.87071   0.53551   0.85378   0.13332
H          H       0.58517   0.58945   0.89167   0.12635
H          H       0.96181   0.73871   0.91427   0.13554
H          H       0.13568   0.73844   0.85740   0.13117
H          H       0.96536   0.59331   0.77610   0.10741
H          H       0.77727   0.45232   0.79309   0.09753
H          H       0.58171   0.35298   0.90211   0.10424
H          H       0.60114   0.48265   0.94463   0.12741
H          H       0.26012   0.90236   0.80531   0.10916
H          H       0.34378   0.01033   0.80271   0.10267
H          H       0.59305   0.90908   0.74219   0.10391
H          H       0.51095   0.80176   0.74947   0.11126
H          H       0.26598   0.57356   0.03805   0.10146
H          H       0.65888   0.68671   0.30076   0.31418
H          H       0.55676   0.69212   0.75640   0.10730
H          H       0.43805   0.60258   0.75255   0.09827
H          H       0.65034   0.46391   0.69504   0.08545
H          H       0.76864   0.55387   0.70087   0.10593
H          H       0.03193   0.86194   0.74496   0.12827
H          H       0.91145   0.71345   0.63539   0.13393
H          H       0.08795   0.74348   0.58962   0.13906
H          H       0.11086   0.94294   0.67116   0.14633
H          H       0.40641   0.94080   0.63103   0.14404
H          H       0.25008   0.75675   0.63735   0.11365
H          H       0.16771   0.03262   0.73466   0.11501
H          H       0.30782   0.17536   0.62859   0.12828
H          H       0.35058   0.05018   0.58360   0.13785
H          H       0.40088   0.72172   0.67339   0.12398
H          H       0.57037   0.68785   0.61975   0.12992
H          H       0.48467   0.87279   0.54956   0.12880
H          H       0.62490   0.03326   0.46114   0.11462
H          H       0.71066   0.12236   0.40443   0.09308
H          H       0.92441   0.98130   0.35654   0.11322
H          H       0.83989   0.89340   0.41521   0.12342
H          H       0.83486   0.61688   0.63275   0.10393
H          H       0.97086   0.54563   0.62914   0.09865
H          H       0.95665   0.54186   0.43426   0.09291
H          H       0.81834   0.61194   0.43695   0.10192
H          H       0.51299   0.85151   0.38805   0.12937
H          H       0.35288   0.79346   0.33757   0.14902
H          H       0.45888   0.67006   0.47665   0.11306
H          H       0.20339   0.74208   0.37867   0.15245
H          H       0.12929   0.53551   0.35378   0.13333
H          H       0.41483   0.58945   0.39167   0.12641
H          H       0.03819   0.73871   0.41427   0.13550
H          H       0.86432   0.73843   0.35739   0.13098
H          H       0.03464   0.59330   0.27610   0.10754
H          H       0.22273   0.45231   0.29309   0.09749
H          H       0.41829   0.35298   0.40211   0.10425
H          H       0.39887   0.48265   0.44463   0.12735
H          H       0.73987   0.90236   0.30530   0.10921
H          H       0.65621   0.01034   0.30270   0.10244
H          H       0.40695   0.90908   0.24219   0.10409
H          H       0.48904   0.80176   0.24946   0.11139
H          H       0.73402   0.57356   0.53805   0.10144
H          H       0.34113   0.31331   0.30076   0.31439
H          H       0.44324   0.30788   0.75640   0.10697
H          H       0.56195   0.39742   0.75255   0.09821
H          H       0.34966   0.53610   0.69504   0.08573
H          H       0.23136   0.44613   0.70087   0.10602
H          H       0.96806   0.13807   0.74498   0.12807
H          H       0.08855   0.28655   0.63541   0.13421
H          H       0.91206   0.25652   0.58963   0.13903
H          H       0.88914   0.05706   0.67117   0.14608
H          H       0.59359   0.05921   0.63104   0.14393
H          H       0.74993   0.24326   0.63737   0.11387
H          H       0.83228   0.96738   0.73466   0.11514
H          H       0.69217   0.82465   0.62858   0.12810
H          H       0.64942   0.94984   0.58360   0.13783
H          H       0.59911   0.27830   0.67339   0.12385
H          H       0.42962   0.31215   0.61976   0.13003
H          H       0.51533   0.12721   0.54957   0.12846
H          H       0.37509   0.96674   0.46113   0.11466
H          H       0.28933   0.87765   0.40443   0.09287
H          H       0.07558   0.01871   0.35654   0.11329
H          H       0.16011   0.10660   0.41521   0.12353
H          H       0.16514   0.38311   0.63276   0.10387
H          H       0.02917   0.45439   0.62914   0.09861
H          H       0.04336   0.45813   0.43426   0.09295
H          H       0.18165   0.38803   0.43696   0.10190
H          H       0.48702   0.14850   0.38805   0.12928
H          H       0.64711   0.20656   0.33757   0.14901
H          H       0.54112   0.32995   0.47666   0.11324
H          H       0.79660   0.25793   0.37868   0.15240
H          H       0.87071   0.46450   0.35378   0.13339
H          H       0.58517   0.41057   0.39168   0.12667
H          H       0.96180   0.26130   0.41428   0.13537
H          H       0.13567   0.26157   0.35741   0.13088
H          H       0.96536   0.40670   0.27610   0.10759
H          H       0.77726   0.54770   0.29309   0.09735
H          H       0.58169   0.64703   0.40210   0.10445
H          H       0.60113   0.51736   0.44463   0.12729
H          H       0.26012   0.09766   0.30532   0.10943
H          H       0.34377   0.98968   0.30271   0.10227
H          H       0.59303   0.09092   0.24219   0.10392
H          H       0.51095   0.19825   0.24948   0.11151
H          H       0.26600   0.42644   0.53806   0.10151
C          C       0.74362   0.31857   0.23257   0.55174
C          C       0.67041   0.37126   0.22866  -0.04326
C          C       0.57667   0.35776   0.24258  -0.09901
C          C       0.51000   0.40805   0.23999  -0.13767
C          C       0.53520   0.47324   0.22349   0.07061
C          C       0.62926   0.48631   0.20892  -0.14502
C          C       0.69589   0.43603   0.21184  -0.10155
C          C       0.02340   0.17394   0.20895   0.09805
C          C       0.96409   0.25220   0.15147  -0.00168
C          C       0.05071   0.23797   0.12855  -0.11835
C          C       0.17285   0.15351   0.15618   0.21861
C          C       0.17470   0.08435   0.16143  -0.25897
C          C       0.25882   0.05072   0.15135   0.20550
C          C       0.34021   0.08520   0.13576  -0.25524
C          C       0.33569   0.15443   0.13042   0.20100
C          C       0.25263   0.18916   0.14014  -0.24776
C          C       0.21146   0.94504   0.20033   0.08263
C          C       0.28711   0.87332   0.14457  -0.01579
C          C       0.30930   0.93498   0.12233  -0.11111
C          C       0.44244   0.25339   0.13937  -0.09975
C          C       0.52589   0.26934   0.11256  -0.02956
C          C       0.48532   0.17213   0.07659   0.08643
C          C       0.67093   0.09623   0.96992   0.55305
C          C       0.72734   0.04182   0.94131  -0.03515
C          C       0.69171   0.97687   0.93940  -0.11165
C          C       0.73924   0.92759   0.90761  -0.10262
C          C       0.82239   0.94264   0.87667  -0.04325
C          C       0.86007   0.00704   0.88069  -0.10547
C          C       0.81299   0.05609   0.91307  -0.09035
C          C       0.86507   0.89364   0.83360   0.55345
C          C       0.74881   0.32353   0.03684   0.57962
C          C       0.79577   0.39284   0.03622  -0.09136
C          C       0.85509   0.40648   0.09047  -0.10342
C          C       0.93102   0.44626   0.08797  -0.16002
C          C       0.96515   0.47577   0.03208   0.04740
C          C       0.92362   0.44800   0.97755  -0.16339
C          C       0.84668   0.40878   0.97843  -0.09969
C          C       0.47809   0.19472   0.89881  -0.02003
C          C       0.39863   0.22172   0.87401  -0.08705
C          C       0.45447   0.28871   0.94544   0.07470
C          C       0.31431   0.33019   0.89097   0.19872
C          C       0.22253   0.31036   0.87907  -0.25429
C          C       0.15680   0.35927   0.86410   0.22044
C          C       0.18171   0.42660   0.86239  -0.25696
C          C       0.27431   0.44461   0.87351   0.20798
C          C       0.34165   0.39672   0.88753  -0.27582
C          C       0.01073   0.29097   0.87770  -0.11510
C          C       0.92520   0.29242   0.84967  -0.02306
C          C       0.00779   0.36989   0.80720   0.08204
C          C       0.27296   0.55840   0.82833   0.09741
C          C       0.37686   0.60636   0.88496  -0.01225
C          C       0.36878   0.54272   0.90628  -0.12336
C          C       0.67405   0.21781   0.78495   0.56120
C          C       0.62055   0.15482   0.77777  -0.06119
C          C       0.66718   0.09527   0.79118  -0.09310
C          C       0.62015   0.03481   0.78889  -0.13769
C          C       0.52536   0.03201   0.77179   0.06966
C          C       0.47966   0.09189   0.75670  -0.13970
C          C       0.52621   0.15259   0.76023  -0.09686
C          C       0.25638   0.68143   0.23256   0.55172
C          C       0.32959   0.62874   0.22865  -0.04320
C          C       0.42333   0.64225   0.24257  -0.09896
C          C       0.49000   0.59195   0.23999  -0.13780
C          C       0.46480   0.52677   0.22349   0.07063
C          C       0.37074   0.51370   0.20891  -0.14513
C          C       0.30411   0.56397   0.21183  -0.10169
C          C       0.97661   0.82606   0.20893   0.09813
C          C       0.03592   0.74780   0.15145  -0.00146
C          C       0.94929   0.76203   0.12854  -0.11877
C          C       0.82716   0.84649   0.15616   0.21863
C          C       0.82531   0.91566   0.16142  -0.25887
C          C       0.74119   0.94929   0.15134   0.20510
C          C       0.65980   0.91481   0.13575  -0.25492
C          C       0.66432   0.84558   0.13041   0.20098
C          C       0.74737   0.81085   0.14013  -0.24781
C          C       0.78856   0.05496   0.20032   0.08263
C          C       0.71290   0.12669   0.14457  -0.01566
C          C       0.69071   0.06503   0.12233  -0.11155
C          C       0.55757   0.74662   0.13937  -0.10018
C          C       0.47412   0.73067   0.11256  -0.02946
C          C       0.51468   0.82787   0.07658   0.08639
C          C       0.32907   0.90378   0.96992   0.55306
C          C       0.27265   0.95818   0.94131  -0.03506
C          C       0.30829   0.02314   0.93940  -0.11145
C          C       0.26076   0.07242   0.90761  -0.10265
C          C       0.17761   0.05736   0.87667  -0.04319
C          C       0.13993   0.99296   0.88069  -0.10557
C          C       0.18700   0.94392   0.91307  -0.09057
C          C       0.13493   0.10637   0.83360   0.55304
C          C       0.25117   0.67647   0.03684   0.57962
C          C       0.20421   0.60716   0.03621  -0.09147
C          C       0.14490   0.59352   0.09046  -0.10338
C          C       0.06895   0.55375   0.08796  -0.15993
C          C       0.03481   0.52424   0.03208   0.04677
C          C       0.07636   0.55200   0.97755  -0.16353
C          C       0.15331   0.59122   0.97843  -0.09934
C          C       0.52190   0.80529   0.89881  -0.01985
C          C       0.60137   0.77829   0.87401  -0.08696
C          C       0.54553   0.71130   0.94544   0.07427
C          C       0.68569   0.66982   0.89097   0.19875
C          C       0.77748   0.68965   0.87907  -0.25375
C          C       0.84320   0.64074   0.86410   0.22020
C          C       0.81829   0.57342   0.86239  -0.25716
C          C       0.72569   0.55541   0.87352   0.20796
C          C       0.65836   0.60329   0.88753  -0.27547
C          C       0.98928   0.70904   0.87769  -0.11500
C          C       0.07481   0.70759   0.84966  -0.02284
C          C       0.99221   0.63012   0.80720   0.08165
C          C       0.72705   0.44161   0.82833   0.09793
C          C       0.62315   0.39365   0.88497  -0.01206
C          C       0.63123   0.45730   0.90629  -0.12345
C          C       0.32598   0.78219   0.78494   0.56119
C          C       0.37944   0.84519   0.77776  -0.06129
C          C       0.33282   0.90474   0.79117  -0.09292
C          C       0.37985   0.96521   0.78889  -0.13774
C          C       0.47464   0.96800   0.77179   0.06963
C          C       0.52034   0.90812   0.75669  -0.13972
C          C       0.47379   0.84742   0.76022  -0.09685
C          C       0.74361   0.68143   0.73256   0.55167
C          C       0.67041   0.62874   0.72865  -0.04324
C          C       0.57667   0.64225   0.74257  -0.09891
C          C       0.51000   0.59195   0.73999  -0.13787
C          C       0.53520   0.52677   0.72349   0.07061
C          C       0.62926   0.51370   0.70891  -0.14518
C          C       0.69589   0.56398   0.71183  -0.10149
C          C       0.02340   0.82607   0.70893   0.09824
C          C       0.96409   0.74780   0.65145  -0.00145
C          C       0.05071   0.76203   0.62854  -0.11873
C          C       0.17285   0.84649   0.65616   0.21879
C          C       0.17469   0.91566   0.66142  -0.25903
C          C       0.25881   0.94929   0.65134   0.20522
C          C       0.34021   0.91481   0.63575  -0.25502
C          C       0.33569   0.84558   0.63041   0.20114
C          C       0.25264   0.81085   0.64013  -0.24793
C          C       0.21145   0.05497   0.70032   0.08269
C          C       0.28710   0.12669   0.64457  -0.01562
C          C       0.30929   0.06503   0.62233  -0.11160
C          C       0.44244   0.74662   0.63937  -0.10021
C          C       0.52588   0.73067   0.61256  -0.02967
C          C       0.48532   0.82787   0.57658   0.08652
C          C       0.67093   0.90378   0.46992   0.55317
C          C       0.72735   0.95818   0.44131  -0.03515
C          C       0.69170   0.02314   0.43940  -0.11144
C          C       0.73923   0.07242   0.40760  -0.10263
C          C       0.82238   0.05736   0.37667  -0.04328
C          C       0.86007   0.99296   0.38070  -0.10563
C          C       0.81300   0.94392   0.41307  -0.09042
C          C       0.86507   0.10636   0.33361   0.55330
C          C       0.74883   0.67647   0.53683   0.57957
C          C       0.79579   0.60716   0.53621  -0.09154
C          C       0.85510   0.59352   0.59046  -0.10315
C          C       0.93105   0.55375   0.58796  -0.16018
C          C       0.96519   0.52424   0.53208   0.04703
C          C       0.92364   0.55200   0.47755  -0.16335
C          C       0.84669   0.59122   0.47843  -0.09947
C          C       0.47809   0.80529   0.39881  -0.01982
C          C       0.39863   0.77829   0.37401  -0.08700
C          C       0.45447   0.71130   0.44544   0.07448
C          C       0.31431   0.66982   0.39097   0.19866
C          C       0.22252   0.68965   0.37907  -0.25385
C          C       0.15680   0.64074   0.36410   0.22035
C          C       0.18171   0.57341   0.36239  -0.25710
C          C       0.27431   0.55540   0.37352   0.20789
C          C       0.34165   0.60329   0.38753  -0.27540
C          C       0.01072   0.70904   0.37769  -0.11499
C          C       0.92519   0.70758   0.34966  -0.02262
C          C       0.00779   0.63011   0.30720   0.08185
C          C       0.27295   0.44161   0.32833   0.09789
C          C       0.37685   0.39365   0.38497  -0.01189
C          C       0.36877   0.45729   0.40629  -0.12351
C          C       0.67405   0.78219   0.28493   0.56136
C          C       0.62055   0.84519   0.27776  -0.06128
C          C       0.66717   0.90474   0.29117  -0.09312
C          C       0.62014   0.96521   0.28889  -0.13742
C          C       0.52535   0.96800   0.27180   0.06961
C          C       0.47966   0.90813   0.25669  -0.13998
C          C       0.52620   0.84742   0.26022  -0.09689
C          C       0.25639   0.31857   0.73257   0.55184
C          C       0.32959   0.37126   0.72866  -0.04326
C          C       0.42333   0.35776   0.74258  -0.09903
C          C       0.49000   0.40805   0.73999  -0.13780
C          C       0.46480   0.47324   0.72349   0.07067
C          C       0.37074   0.48631   0.70891  -0.14503
C          C       0.30411   0.43603   0.71183  -0.10153
C          C       0.97660   0.17394   0.70894   0.09798
C          C       0.03591   0.25220   0.65147  -0.00168
C          C       0.94929   0.23797   0.62855  -0.11845
C          C       0.82715   0.15351   0.65617   0.21837
C          C       0.82530   0.08435   0.66143  -0.25881
C          C       0.74118   0.05072   0.65135   0.20519
C          C       0.65979   0.08520   0.63576  -0.25497
C          C       0.66431   0.15443   0.63042   0.20084
C          C       0.74736   0.18916   0.64014  -0.24749
C          C       0.78855   0.94504   0.70032   0.08282
C          C       0.71289   0.87332   0.64457  -0.01596
C          C       0.69070   0.93498   0.62233  -0.11116
C          C       0.55756   0.25339   0.63937  -0.09946
C          C       0.47411   0.26934   0.61256  -0.02951
C          C       0.51468   0.17213   0.57659   0.08647
C          C       0.32907   0.09623   0.46992   0.55309
C          C       0.27265   0.04182   0.44131  -0.03531
C          C       0.30829   0.97686   0.43941  -0.11160
C          C       0.26076   0.92759   0.40761  -0.10252
C          C       0.17761   0.94264   0.37667  -0.04344
C          C       0.13993   0.00704   0.38070  -0.10569
C          C       0.18700   0.05609   0.41307  -0.09011
C          C       0.13493   0.89364   0.33360   0.55353
C          C       0.25119   0.32353   0.53684   0.57971
C          C       0.20422   0.39284   0.53622  -0.09135
C          C       0.14491   0.40649   0.59047  -0.10346
C          C       0.06898   0.44627   0.58797  -0.15991
C          C       0.03485   0.47578   0.53208   0.04724
C          C       0.07639   0.44800   0.47755  -0.16354
C          C       0.15332   0.40877   0.47844  -0.09947
C          C       0.52191   0.19472   0.39881  -0.01994
C          C       0.60137   0.22172   0.37401  -0.08712
C          C       0.54553   0.28871   0.44544   0.07466
C          C       0.68569   0.33019   0.39097   0.19867
C          C       0.77747   0.31036   0.37907  -0.25412
C          C       0.84320   0.35927   0.36410   0.22039
C          C       0.81829   0.42660   0.36239  -0.25693
C          C       0.72569   0.44461   0.37352   0.20789
C          C       0.65835   0.39672   0.38754  -0.27569
C          C       0.98927   0.29097   0.37770  -0.11498
C          C       0.07480   0.29242   0.34967  -0.02289
C          C       0.99221   0.36988   0.30720   0.08195
C          C       0.72704   0.55840   0.32833   0.09757
C          C       0.62314   0.60636   0.38496  -0.01235
C          C       0.63122   0.54271   0.40628  -0.12330
C          C       0.32596   0.21781   0.28496   0.56093
C          C       0.37944   0.15482   0.27777  -0.06092
C          C       0.33282   0.09527   0.29118  -0.09327
C          C       0.37985   0.03481   0.28890  -0.13731
C          C       0.47463   0.03201   0.27179   0.06930
C          C       0.52033   0.09189   0.25670  -0.13956
C          C       0.47378   0.15260   0.26023  -0.09719
N          N       0.94855   0.21231   0.20154  -0.26529
N          N       0.08733   0.18764   0.16496   0.01836
N          N       0.26043   0.98042   0.15789   0.01616
N          N       0.22706   0.88032   0.19330  -0.27292
N          N       0.41759   0.19127   0.11631   0.02152
N          N       0.55118   0.21865   0.07341  -0.27815
N          N       0.51245   0.23700   0.94285  -0.27658
N          N       0.38428   0.28167   0.90397   0.02385
N          N       0.06352   0.34117   0.85083   0.00442
N          N       0.92435   0.34161   0.80563  -0.25917
N          N       0.30196   0.51217   0.86991   0.01364
N          N       0.31761   0.61556   0.83634  -0.27452
N          N       0.05146   0.78770   0.20152  -0.26553
N          N       0.91268   0.81237   0.16495   0.01825
N          N       0.73958   0.01959   0.15788   0.01636
N          N       0.77295   0.11969   0.19330  -0.27269
N          N       0.58241   0.80874   0.11630   0.02161
N          N       0.44882   0.78135   0.07340  -0.27801
N          N       0.48755   0.76301   0.94285  -0.27623
N          N       0.61572   0.71834   0.90397   0.02367
N          N       0.93649   0.65884   0.85083   0.00461
N          N       0.07566   0.65840   0.80562  -0.25946
N          N       0.69804   0.48784   0.86991   0.01344
N          N       0.68240   0.38445   0.83634  -0.27551
N          N       0.94855   0.78770   0.70152  -0.26576
N          N       0.08733   0.81237   0.66495   0.01827
N          N       0.26042   0.01959   0.65788   0.01628
N          N       0.22705   0.11969   0.69330  -0.27264
N          N       0.41759   0.80874   0.61630   0.02146
N          N       0.55118   0.78135   0.57340  -0.27795
N          N       0.51245   0.76301   0.44284  -0.27625
N          N       0.38428   0.71834   0.40397   0.02367
N          N       0.06352   0.65883   0.35083   0.00444
N          N       0.92434   0.65839   0.30562  -0.25969
N          N       0.30196   0.48784   0.36991   0.01351
N          N       0.31760   0.38445   0.33634  -0.27540
N          N       0.05145   0.21231   0.70153  -0.26542
N          N       0.91267   0.18764   0.66496   0.01842
N          N       0.73957   0.98042   0.65789   0.01624
N          N       0.77294   0.88032   0.69329  -0.27303
N          N       0.58240   0.19127   0.61631   0.02133
N          N       0.44882   0.21865   0.57341  -0.27813
N          N       0.48755   0.23700   0.44285  -0.27654
N          N       0.61572   0.28167   0.40398   0.02373
N          N       0.93648   0.34117   0.35084   0.00446
N          N       0.07565   0.34160   0.30563  -0.25933
N          N       0.69803   0.51217   0.36991   0.01350
N          N       0.68239   0.61556   0.33634  -0.27454
O          O       0.82827   0.33347   0.22729  -0.55336
O          O       0.71410   0.25806   0.24242  -0.55650
O          O       0.59317   0.08374   0.99384  -0.56804
O          O       0.70827   0.15505   0.96657  -0.54077
O          O       0.81935   0.83777   0.82712  -0.58518
O          O       0.93570   0.90956   0.80347  -0.55169
O          O       0.76014   0.28351   0.07910  -0.53846
O          O       0.69369   0.31332   0.99085  -0.57638
O          O       0.76002   0.21903   0.78810  -0.48412
O          O       0.62000   0.27246   0.78775  -0.48628
O          O       0.17173   0.66653   0.22729  -0.55338
O          O       0.28590   0.74194   0.24242  -0.55644
O          O       0.40683   0.91627   0.99384  -0.56778
O          O       0.29173   0.84496   0.96657  -0.54116
O          O       0.18065   0.16223   0.82712  -0.58457
O          O       0.06430   0.09044   0.80347  -0.55164
O          O       0.23984   0.71648   0.07909  -0.53833
O          O       0.30631   0.68668   0.99085  -0.57663
O          O       0.23994   0.78098   0.78810  -0.48448
O          O       0.38000   0.72755   0.78775  -0.48613
O          O       0.82827   0.66654   0.72729  -0.55336
O          O       0.71410   0.74194   0.74242  -0.55640
O          O       0.59317   0.91627   0.49384  -0.56803
O          O       0.70828   0.84496   0.46657  -0.54103
O          O       0.81935   0.16223   0.32712  -0.58478
O          O       0.93570   0.09044   0.30348  -0.55179
O          O       0.76016   0.71648   0.57909  -0.53817
O          O       0.69369   0.68668   0.49085  -0.57656
O          O       0.76003   0.78098   0.28810  -0.48423
O          O       0.62000   0.72755   0.28775  -0.48631
O          O       0.17173   0.33347   0.72729  -0.55332
O          O       0.28589   0.25806   0.74242  -0.55666
O          O       0.40683   0.08374   0.49384  -0.56808
O          O       0.29172   0.15505   0.46657  -0.54080
O          O       0.18065   0.83777   0.32712  -0.58504
O          O       0.06431   0.90956   0.30346  -0.55182
O          O       0.23985   0.28351   0.57910  -0.53856
O          O       0.30631   0.31332   0.49085  -0.57650
O          O       0.23996   0.21903   0.28810  -0.48402
O          O       0.38000   0.27246   0.28775  -0.48632

