data_crystal

_audit_creation_method 'AiiDA-DDEC plugin'

_cell_length_a        17.21342
_cell_length_b        19.80743
_cell_length_c        21.20784

_cell_angle_alpha     90.00000
_cell_angle_beta     100.62068
_cell_angle_gamma     90.00000

_symmetry_space_group_name_Hall 'P 1'
_symmetry_space_group_name_H-M  'P 1'

loop_
_symmetry_equiv_pos_as_xyz
 'x,y,z'

loop_
_atom_site_label
_atom_site_type_symbol
_atom_site_fract_x
_atom_site_fract_y
_atom_site_fract_z
_atom_site_charge
Cu         Cu      0.00352   0.00186   0.65722   0.28093
Cu         Cu     -0.00006   0.75308   0.65825   0.35816
Cu         Cu      0.24957   0.62597   0.66090   0.24452
Cu         Cu      0.75378   0.62401   0.66017   0.50663
Cu         Cu      0.00879   0.24855   0.67439   0.15330
Cu         Cu      0.88699   0.99814   0.55597   0.29976
Cu         Cu      0.37669   0.64210   0.57152   0.41799
Cu         Cu      0.49648   0.00186   0.34278   0.28090
Cu         Cu      0.50006   0.75308   0.34175   0.35824
Cu         Cu      0.25043   0.62597   0.33910   0.24440
Cu         Cu      0.74622   0.62401   0.33984   0.50664
Cu         Cu      0.49122   0.24855   0.32561   0.15329
Cu         Cu      0.61302   0.99814   0.44403   0.29982
Cu         Cu      0.12331   0.64210   0.42848   0.41799
Cu         Cu      0.99648   0.99814   0.34278   0.28102
Cu         Cu      0.00006   0.24692   0.34175   0.35833
Cu         Cu      0.75043   0.37403   0.33910   0.24449
Cu         Cu      0.24622   0.37599   0.33984   0.50668
Cu         Cu      0.99122   0.75146   0.32561   0.15328
Cu         Cu      0.11302   0.00186   0.44403   0.29978
Cu         Cu      0.62331   0.35790   0.42848   0.41803
Cu         Cu      0.50352   0.99814   0.65723   0.28106
Cu         Cu      0.49994   0.24692   0.65825   0.35829
Cu         Cu      0.74957   0.37403   0.66090   0.24448
Cu         Cu      0.25378   0.37599   0.66017   0.50660
Cu         Cu      0.50878   0.75146   0.67439   0.15319
Cu         Cu      0.38699   0.00186   0.55597   0.29975
Cu         Cu      0.87669   0.35790   0.57152   0.41805
Cu         Cu      0.99367   0.74998   0.99735   0.40536
Cu         Cu      0.89313   0.99277   0.89023   0.21816
Cu         Cu      0.11187   0.00925   0.77400   0.34497
Cu         Cu      0.50633   0.74998   0.00265   0.40536
Cu         Cu      0.60687   0.99277   0.10977   0.21814
Cu         Cu      0.38813   0.00925   0.22600   0.34498
Cu         Cu      0.00633   0.25002   0.00265   0.40542
Cu         Cu      0.10687   0.00724   0.10977   0.21818
Cu         Cu      0.88813   0.99076   0.22600   0.34494
Cu         Cu      0.49367   0.25002   0.99735   0.40547
Cu         Cu      0.39313   0.00724   0.89023   0.21816
Cu         Cu      0.61187   0.99076   0.77400   0.34499
Cu         Cu      0.75000   0.61653  -0.00000   0.45701
Cu         Cu      0.75000   0.36620  -0.00000   0.36024
Cu         Cu      0.25000   0.38347   0.00000   0.45690
Cu         Cu      0.25000   0.63381   0.00000   0.36020
Cu         Cu      0.00000  -0.00000  -0.00000   0.16546
Cu         Cu      0.50000  -0.00000   0.00000   0.16545
H          H       0.86840   0.84563   0.58108   0.08503
H          H       0.75744   0.77199   0.60163   0.12222
H          H       0.62777   0.82662   0.60966   0.10283
H          H       0.61456   0.95110   0.59721   0.11876
H          H       0.61573   0.05679   0.59385   0.11801
H          H       0.63339   0.18141   0.60145   0.11303
H          H       0.76423   0.23135   0.59078   0.10804
H          H       0.87342   0.15284   0.57394   0.08479
H          H       0.41742   0.77905   0.51113   0.08444
H          H       0.53810   0.82675   0.47910   0.12848
H          H       0.65531   0.74875   0.48019   0.10742
H          H       0.64652   0.63062   0.51581   0.12203
H          H       0.63174   0.53413   0.54546   0.11929
H          H       0.61035   0.42220   0.59179   0.09460
H          H       0.48544   0.40129   0.63378   0.12125
H          H       0.38626   0.49472   0.62699   0.09965
H          H       0.63161   0.84563   0.41893   0.08493
H          H       0.74256   0.77199   0.39837   0.12218
H          H       0.87223   0.82662   0.39034   0.10284
H          H       0.88545   0.95110   0.40279   0.11885
H          H       0.88428   0.05679   0.40615   0.11807
H          H       0.86661   0.18141   0.39855   0.11307
H          H       0.73577   0.23135   0.40922   0.10800
H          H       0.62659   0.15284   0.42606   0.08471
H          H       0.08258   0.77905   0.48887   0.08459
H          H       0.96190   0.82675   0.52090   0.12848
H          H       0.84469   0.74875   0.51981   0.10733
H          H       0.85348   0.63062   0.48419   0.12200
H          H       0.86826   0.53413   0.45454   0.11923
H          H       0.88965   0.42220   0.40821   0.09455
H          H       0.01456   0.40129   0.36622   0.12125
H          H       0.11375   0.49472   0.37301   0.09960
H          H       0.13161   0.15438   0.41893   0.08496
H          H       0.24256   0.22802   0.39837   0.12228
H          H       0.37223   0.17338   0.39034   0.10288
H          H       0.38545   0.04890   0.40279   0.11876
H          H       0.38428   0.94322   0.40615   0.11805
H          H       0.36661   0.81859   0.39855   0.11298
H          H       0.23578   0.76865   0.40922   0.10781
H          H       0.12659   0.84716   0.42606   0.08460
H          H       0.58258   0.22096   0.48887   0.08449
H          H       0.46190   0.17325   0.52090   0.12834
H          H       0.34469   0.25125   0.51982   0.10726
H          H       0.35348   0.36939   0.48419   0.12213
H          H       0.36826   0.46588   0.45454   0.11924
H          H       0.38965   0.57781   0.40821   0.09456
H          H       0.51456   0.59871   0.36622   0.12139
H          H       0.61374   0.50528   0.37301   0.09970
H          H       0.36840   0.15438   0.58108   0.08506
H          H       0.25744   0.22802   0.60163   0.12228
H          H       0.12777   0.17338   0.60966   0.10288
H          H       0.11456   0.04890   0.59721   0.11872
H          H       0.11573   0.94322   0.59385   0.11799
H          H       0.13339   0.81859   0.60145   0.11292
H          H       0.26423   0.76865   0.59078   0.10788
H          H       0.37342   0.84716   0.57394   0.08469
H          H       0.91742   0.22096   0.51113   0.08443
H          H       0.03810   0.17325   0.47910   0.12834
H          H       0.15531   0.25125   0.48018   0.10741
H          H       0.14653   0.36939   0.51581   0.12223
H          H       0.13174   0.46588   0.54546   0.11927
H          H       0.11035   0.57781   0.59179   0.09462
H          H       0.98544   0.59871   0.63378   0.12138
H          H       0.88626   0.50528   0.62699   0.09969
H          H       0.87299   0.14877   0.90148   0.09887
H          H       0.76224   0.22527   0.91677   0.12468
H          H       0.63417   0.17313   0.93335   0.12223
H          H       0.62189   0.04815   0.93249   0.11358
H          H       0.62076   0.94384   0.93277   0.11459
H          H       0.62965   0.81875   0.93497   0.11086
H          H       0.75676   0.76355   0.92005   0.13461
H          H       0.86915   0.83716   0.90341   0.08966
H          H       0.13274   0.85380   0.76437   0.10068
H          H       0.24444   0.77774   0.75069   0.13035
H          H       0.37190   0.83070   0.73264   0.11062
H          H       0.38249   0.95534   0.73111   0.11918
H          H       0.38483   0.05964   0.73488   0.11679
H          H       0.37845   0.18461   0.73986   0.11349
H          H       0.25198   0.23948   0.75754   0.13383
H          H       0.13764   0.16566   0.76827   0.08867
H          H       0.62702   0.14877   0.09852   0.09881
H          H       0.73777   0.22527   0.08323   0.12464
H          H       0.86583   0.17313   0.06665   0.12235
H          H       0.87811   0.04815   0.06751   0.11360
H          H       0.87925   0.94384   0.06723   0.11464
H          H       0.87035   0.81875   0.06503   0.11085
H          H       0.74325   0.76355   0.07995   0.13466
H          H       0.63085   0.83716   0.09659   0.08959
H          H       0.36726   0.85380   0.23563   0.10075
H          H       0.25557   0.77774   0.24931   0.13042
H          H       0.12810   0.83070   0.26736   0.11060
H          H       0.11751   0.95534   0.26889   0.11915
H          H       0.11517   0.05964   0.26512   0.11677
H          H       0.12156   0.18461   0.26014   0.11335
H          H       0.24802   0.23948   0.24246   0.13384
H          H       0.36236   0.16566   0.23173   0.08872
H          H       0.12702   0.85123   0.09852   0.09872
H          H       0.23777   0.77473   0.08323   0.12457
H          H       0.36583   0.82688   0.06665   0.12225
H          H       0.37811   0.95185   0.06751   0.11367
H          H       0.37925   0.05617   0.06723   0.11454
H          H       0.37035   0.18126   0.06503   0.11099
H          H       0.24325   0.23645   0.07995   0.13480
H          H       0.13085   0.16284   0.09659   0.08964
H          H       0.86726   0.14621   0.23563   0.10083
H          H       0.75557   0.22227   0.24931   0.13062
H          H       0.62810   0.16930   0.26736   0.11064
H          H       0.61751   0.04467   0.26889   0.11910
H          H       0.61517   0.94037   0.26512   0.11676
H          H       0.62156   0.81540   0.26014   0.11334
H          H       0.74802   0.76052   0.24246   0.13361
H          H       0.86236   0.83434   0.23173   0.08871
H          H       0.37299   0.85123   0.90148   0.09884
H          H       0.26224   0.77473   0.91677   0.12455
H          H       0.13417   0.82688   0.93335   0.12212
H          H       0.12189   0.95185   0.93249   0.11363
H          H       0.12076   0.05617   0.93277   0.11452
H          H       0.12965   0.18126   0.93497   0.11088
H          H       0.25676   0.23645   0.92005   0.13483
H          H       0.36915   0.16284   0.90341   0.08971
H          H       0.63274   0.14621   0.76437   0.10077
H          H       0.74443   0.22227   0.75069   0.13057
H          H       0.87190   0.16930   0.73264   0.11066
H          H       0.88249   0.04467   0.73111   0.11915
H          H       0.88483   0.94037   0.73488   0.11683
H          H       0.87845   0.81540   0.73986   0.11339
H          H       0.75198   0.76052   0.75754   0.13363
H          H       0.63764   0.83434   0.76827   0.08862
C          C       0.00532   0.15337   0.67069  -0.03190
C          C       0.00611   0.90951   0.66268  -0.07678
C          C       0.90575   0.70582   0.65734  -0.11589
C          C       0.16010   0.68190   0.65741  -0.07931
C          C       0.25578   0.53084   0.65658  -0.07074
C          C       0.10506   0.29655   0.67610  -0.04800
C          C       0.91233   0.29695   0.67060  -0.06223
C          C       0.97288  -0.00083   0.51641  -0.36046
C          C       0.81067   0.86661   0.58335   0.08451
C          C       0.74859   0.82606   0.59457  -0.12611
C          C       0.67705   0.85667   0.59966  -0.01294
C          C       0.67013   0.92652   0.59387  -0.13611
C          C       0.73539   0.96445   0.58402   0.14760
C          C       0.73655   0.03892   0.58247   0.15071
C          C       0.67224   0.07934   0.58997  -0.13727
C          C       0.68150   0.14917   0.59271  -0.02026
C          C       0.75415   0.17720   0.58667  -0.12487
C          C       0.81506   0.13412   0.57765   0.08601
C          C       0.46981   0.74811   0.51235   0.09175
C          C       0.53699   0.77402   0.49342  -0.13664
C          C       0.60146   0.73089   0.49450  -0.02169
C          C       0.59665   0.66451   0.51457  -0.13910
C          C       0.52790   0.64219   0.53457   0.18130
C          C       0.51966   0.57402   0.56075   0.15582
C          C       0.57755   0.52423   0.56313  -0.13887
C          C       0.56560   0.46138   0.58906  -0.00933
C          C       0.49653   0.44964   0.61273  -0.10532
C          C       0.44104   0.50142   0.60905   0.10034
C          C       0.49468   0.15337   0.32932  -0.03187
C          C       0.49389   0.90951   0.33732  -0.07677
C          C       0.59426   0.70582   0.34266  -0.11607
C          C       0.33990   0.68190   0.34259  -0.07930
C          C       0.24422   0.53084   0.34342  -0.07062
C          C       0.39494   0.29655   0.32390  -0.04783
C          C       0.58768   0.29695   0.32940  -0.06231
C          C       0.52712  -0.00083   0.48359  -0.36051
C          C       0.68933   0.86661   0.41665   0.08458
C          C       0.75141   0.82606   0.40543  -0.12615
C          C       0.82296   0.85667   0.40034  -0.01284
C          C       0.82987   0.92652   0.40613  -0.13611
C          C       0.76461   0.96445   0.41598   0.14758
C          C       0.76345   0.03892   0.41753   0.15076
C          C       0.82776   0.07934   0.41003  -0.13731
C          C       0.81850   0.14917   0.40729  -0.02023
C          C       0.74585   0.17720   0.41333  -0.12480
C          C       0.68494   0.13412   0.42235   0.08598
C          C       0.03020   0.74811   0.48765   0.09160
C          C       0.96302   0.77402   0.50658  -0.13657
C          C       0.89854   0.73089   0.50550  -0.02172
C          C       0.90335   0.66451   0.48543  -0.13912
C          C       0.97210   0.64219   0.46543   0.18130
C          C       0.98034   0.57402   0.43925   0.15579
C          C       0.92245   0.52423   0.43687  -0.13887
C          C       0.93440   0.46138   0.41094  -0.00937
C          C       0.00347   0.44964   0.38727  -0.10532
C          C       0.05897   0.50142   0.39095   0.10052
C          C       0.99468   0.84663   0.32932  -0.03215
C          C       0.99389   0.09049   0.33732  -0.07709
C          C       0.09426   0.29418   0.34266  -0.11627
C          C       0.83990   0.31810   0.34259  -0.07916
C          C       0.74422   0.46916   0.34342  -0.07089
C          C       0.89494   0.70345   0.32390  -0.04765
C          C       0.08768   0.70306   0.32940  -0.06225
C          C       0.02712   0.00083   0.48359  -0.36053
C          C       0.18933   0.13339   0.41665   0.08475
C          C       0.25141   0.17394   0.40543  -0.12610
C          C       0.32296   0.14333   0.40034  -0.01267
C          C       0.32987   0.07348   0.40613  -0.13625
C          C       0.26461   0.03556   0.41598   0.14759
C          C       0.26345   0.96108   0.41753   0.15086
C          C       0.32776   0.92066   0.41003  -0.13707
C          C       0.31850   0.85083   0.40729  -0.02039
C          C       0.24585   0.82281   0.41333  -0.12469
C          C       0.18494   0.86588   0.42235   0.08588
C          C       0.53019   0.25189   0.48765   0.09157
C          C       0.46301   0.22598   0.50658  -0.13682
C          C       0.39854   0.26911   0.50550  -0.02149
C          C       0.40335   0.33549   0.48543  -0.13922
C          C       0.47210   0.35781   0.46543   0.18130
C          C       0.48034   0.42599   0.43925   0.15565
C          C       0.42245   0.47577   0.43687  -0.13887
C          C       0.43440   0.53862   0.41094  -0.00923
C          C       0.50347   0.55036   0.38727  -0.10530
C          C       0.55896   0.49858   0.39095   0.10049
C          C       0.50532   0.84663   0.67068  -0.03200
C          C       0.50611   0.09049   0.66268  -0.07711
C          C       0.40575   0.29418   0.65734  -0.11608
C          C       0.66010   0.31810   0.65742  -0.07921
C          C       0.75578   0.46916   0.65658  -0.07094
C          C       0.60506   0.70345   0.67610  -0.04775
C          C       0.41233   0.70306   0.67060  -0.06201
C          C       0.47288   0.00083   0.51641  -0.36047
C          C       0.31067   0.13339   0.58335   0.08473
C          C       0.24859   0.17394   0.59457  -0.12607
C          C       0.17705   0.14333   0.59966  -0.01274
C          C       0.17013   0.07348   0.59387  -0.13632
C          C       0.23539   0.03556   0.58402   0.14762
C          C       0.23655   0.96108   0.58247   0.15090
C          C       0.17224   0.92066   0.58997  -0.13718
C          C       0.18150   0.85083   0.59271  -0.02037
C          C       0.25415   0.82281   0.58667  -0.12480
C          C       0.31506   0.86588   0.57765   0.08588
C          C       0.96981   0.25189   0.51235   0.09151
C          C       0.03699   0.22598   0.49342  -0.13674
C          C       0.10147   0.26911   0.49450  -0.02168
C          C       0.09665   0.33549   0.51457  -0.13918
C          C       0.02790   0.35781   0.53457   0.18138
C          C       0.01967   0.42599   0.56075   0.15570
C          C       0.07755   0.47577   0.56313  -0.13884
C          C       0.06561   0.53862   0.58906  -0.00918
C          C       0.99654   0.55036   0.61273  -0.10535
C          C       0.94104   0.49858   0.60905   0.10047
C          C       0.89885   0.70452  -0.00048  -0.11767
C          C      -0.00137   0.90688  -0.00122  -0.04458
C          C       0.15484   0.68343   0.99567  -0.06496
C          C       0.97695  -0.00143   0.84771  -0.08063
C          C       0.81627   0.12856   0.90803   0.09519
C          C       0.75428   0.17079   0.91642  -0.11621
C          C       0.68341   0.14164   0.92557  -0.01852
C          C       0.67691   0.07151   0.92574  -0.14469
C          C       0.74160   0.03196   0.91724   0.14785
C          C       0.74077   0.95721   0.91739   0.14779
C          C       0.67509   0.91918   0.92621  -0.14688
C          C       0.67976   0.84896   0.92686  -0.01320
C          C       0.74996   0.81815   0.91846  -0.11366
C          C       0.81297   0.85890   0.90944   0.09217
C          C       0.18925   0.87426   0.75762   0.09666
C          C       0.25172   0.83227   0.74986  -0.11537
C          C       0.32207   0.86175   0.73992  -0.01741
C          C       0.32785   0.93191   0.73869  -0.14606
C          C       0.26430   0.04596   0.74902   0.15171
C          C       0.26311   0.97122   0.74753   0.15020
C          C       0.33081   0.08411   0.74250  -0.15006
C          C       0.32746   0.15433   0.74578  -0.01584
C          C       0.25768   0.18488   0.75552  -0.11432
C          C       0.19354   0.14394   0.76145   0.09619
C          C       0.60116   0.70452   0.00048  -0.11778
C          C       0.50137   0.90688   0.00122  -0.04446
C          C       0.34516   0.68343   0.00433  -0.06502
C          C       0.52305  -0.00143   0.15229  -0.08066
C          C       0.68373   0.12856   0.09198   0.09514
C          C       0.74572   0.17079   0.08358  -0.11618
C          C       0.81659   0.14164   0.07443  -0.01869
C          C       0.82309   0.07151   0.07426  -0.14438
C          C       0.75840   0.03196   0.08276   0.14768
C          C       0.75923   0.95721   0.08261   0.14779
C          C       0.82491   0.91918   0.07379  -0.14684
C          C       0.82024   0.84896   0.07314  -0.01300
C          C       0.75004   0.81815   0.08154  -0.11378
C          C       0.68703   0.85890   0.09056   0.09218
C          C       0.31075   0.87426   0.24238   0.09676
C          C       0.24828   0.83227   0.25015  -0.11557
C          C       0.17793   0.86175   0.26008  -0.01743
C          C       0.17215   0.93191   0.26131  -0.14614
C          C       0.23570   0.04596   0.25098   0.15168
C          C       0.23689   0.97122   0.25247   0.15022
C          C       0.16919   0.08411   0.25750  -0.15019
C          C       0.17255   0.15433   0.25422  -0.01577
C          C       0.24232   0.18488   0.24448  -0.11433
C          C       0.30646   0.14394   0.23855   0.09623
C          C       0.10116   0.29548   0.00048  -0.11797
C          C       0.00137   0.09312   0.00122  -0.04498
C          C       0.84516   0.31658   0.00433  -0.06493
C          C       0.02305   0.00144   0.15229  -0.08058
C          C       0.18373   0.87144   0.09198   0.09512
C          C       0.24572   0.82921   0.08358  -0.11636
C          C       0.31659   0.85837   0.07443  -0.01859
C          C       0.32309   0.92849   0.07426  -0.14449
C          C       0.25840   0.96804   0.08276   0.14778
C          C       0.25923   0.04279   0.08261   0.14767
C          C       0.32491   0.08082   0.07379  -0.14677
C          C       0.32024   0.15105   0.07314  -0.01308
C          C       0.25004   0.18186   0.08154  -0.11368
C          C       0.18703   0.14110   0.09056   0.09225
C          C       0.81075   0.12574   0.24238   0.09682
C          C       0.74828   0.16773   0.25015  -0.11548
C          C       0.67793   0.13825   0.26008  -0.01734
C          C       0.67215   0.06809   0.26131  -0.14610
C          C       0.73570   0.95405   0.25098   0.15167
C          C       0.73689   0.02878   0.25247   0.15014
C          C       0.66919   0.91589   0.25750  -0.14999
C          C       0.67255   0.84568   0.25422  -0.01598
C          C       0.74232   0.81512   0.24448  -0.11422
C          C       0.80646   0.85606   0.23855   0.09608
C          C       0.39884   0.29548  -0.00048  -0.11791
C          C       0.49863   0.09312  -0.00122  -0.04507
C          C       0.65484   0.31658   0.99567  -0.06477
C          C       0.47695   0.00144   0.84771  -0.08063
C          C       0.31627   0.87144   0.90803   0.09508
C          C       0.25428   0.82922   0.91642  -0.11641
C          C       0.18341   0.85837   0.92557  -0.01850
C          C       0.17691   0.92849   0.92574  -0.14455
C          C       0.24160   0.96804   0.91724   0.14776
C          C       0.24077   0.04279   0.91739   0.14764
C          C       0.17509   0.08082   0.92621  -0.14690
C          C       0.17976   0.15105   0.92686  -0.01305
C          C       0.24996   0.18186   0.91846  -0.11367
C          C       0.31297   0.14110   0.90944   0.09224
C          C       0.68925   0.12574   0.75762   0.09674
C          C       0.75172   0.16773   0.74986  -0.11531
C          C       0.82207   0.13825   0.73992  -0.01732
C          C       0.82785   0.06809   0.73869  -0.14607
C          C       0.76430   0.95405   0.74902   0.15177
C          C       0.76311   0.02878   0.74753   0.15017
C          C       0.83081   0.91589   0.74250  -0.15007
C          C       0.82746   0.84568   0.74578  -0.01576
C          C       0.75768   0.81512   0.75552  -0.11440
C          C       0.69354   0.85606   0.76145   0.09605
C          C       0.75000   0.52177  -0.00000  -0.09758
C          C       0.25000   0.47823   0.00000  -0.09777
N          N       0.80668   0.06662   0.57555  -0.22183
N          N       0.80446   0.93416   0.57794  -0.22540
N          N       0.46513   0.68410   0.53272  -0.26555
N          N       0.45192   0.56215   0.58336  -0.25651
N          N       0.00412   0.09402   0.66615  -0.32485
N          N       0.00668   0.85006   0.66353  -0.31516
N          N       0.10113   0.71283   0.65534  -0.33921
N          N       0.85149   0.32624   0.66733  -0.31565
N          N       0.25630   0.47141   0.65326  -0.37053
N          N       0.84628   0.67535   0.65447  -0.36791
N          N       0.16332   0.32644   0.67277  -0.37090
N          N       0.27705   0.64090   0.52023  -0.05089
N          N       0.69332   0.06662   0.42445  -0.22185
N          N       0.69554   0.93416   0.42207  -0.22547
N          N       0.03487   0.68410   0.46728  -0.26547
N          N       0.04808   0.56215   0.41664  -0.25650
N          N       0.49589   0.09402   0.33386  -0.32483
N          N       0.49332   0.85006   0.33647  -0.31520
N          N       0.39887   0.71283   0.34466  -0.33922
N          N       0.64852   0.32624   0.33268  -0.31562
N          N       0.24370   0.47141   0.34674  -0.37065
N          N       0.65372   0.67535   0.34553  -0.36775
N          N       0.33668   0.32644   0.32723  -0.37112
N          N       0.22295   0.64090   0.47977  -0.05092
N          N       0.19332   0.93338   0.42445  -0.22184
N          N       0.19554   0.06585   0.42207  -0.22559
N          N       0.53487   0.31590   0.46728  -0.26538
N          N       0.54808   0.43786   0.41664  -0.25657
N          N       0.99589   0.90598   0.33386  -0.32465
N          N       0.99332   0.14994   0.33647  -0.31494
N          N       0.89887   0.28718   0.34466  -0.33943
N          N       0.14852   0.67377   0.33267  -0.31561
N          N       0.74370   0.52859   0.34674  -0.37039
N          N       0.15372   0.32466   0.34553  -0.36758
N          N       0.83668   0.67356   0.32723  -0.37130
N          N       0.72296   0.35911   0.47977  -0.05083
N          N       0.30668   0.93338   0.57555  -0.22171
N          N       0.30446   0.06585   0.57794  -0.22562
N          N       0.96513   0.31590   0.53272  -0.26552
N          N       0.95193   0.43786   0.58336  -0.25670
N          N       0.50412   0.90598   0.66615  -0.32480
N          N       0.50668   0.14994   0.66353  -0.31494
N          N       0.60113   0.28718   0.65534  -0.33936
N          N       0.35148   0.67377   0.66733  -0.31583
N          N       0.75630   0.52859   0.65326  -0.37035
N          N       0.34628   0.32466   0.65447  -0.36771
N          N       0.66333   0.67356   0.67277  -0.37115
N          N       0.77704   0.35911   0.52023  -0.05088
N          N       0.81044   0.06078   0.90841  -0.23021
N          N       0.80890   0.92682   0.90867  -0.22431
N          N       0.19450   0.94206   0.75655  -0.24807
N          N       0.19632   0.07609   0.75858  -0.24372
N          N       0.84031   0.67402   0.00052  -0.31688
N          N      -0.00166   0.84751   0.99833  -0.31179
N          N       0.09656   0.71495   0.99462  -0.34050
N          N       0.02839   0.00425   0.81801  -0.34130
N          N       0.68956   0.06078   0.09159  -0.23015
N          N       0.69110   0.92682   0.09133  -0.22438
N          N       0.30550   0.94206   0.24345  -0.24799
N          N       0.30368   0.07609   0.24143  -0.24365
N          N       0.65969   0.67402  -0.00052  -0.31673
N          N       0.50166   0.84751   0.00167  -0.31190
N          N       0.40345   0.71495   0.00538  -0.34046
N          N       0.47161   0.00425   0.18199  -0.34132
N          N       0.18956   0.93922   0.09159  -0.23011
N          N       0.19110   0.07318   0.09133  -0.22441
N          N       0.80550   0.05795   0.24345  -0.24813
N          N       0.80368   0.92391   0.24143  -0.24361
N          N       0.15969   0.32598  -0.00052  -0.31651
N          N       0.00166   0.15249   0.00167  -0.31147
N          N       0.90345   0.28505   0.00539  -0.34057
N          N       0.97161   0.99576   0.18199  -0.34138
N          N       0.31044   0.93922   0.90841  -0.23004
N          N       0.30890   0.07318   0.90867  -0.22423
N          N       0.69450   0.05795   0.75655  -0.24827
N          N       0.69632   0.92391   0.75858  -0.24364
N          N       0.34031   0.32598   0.00052  -0.31663
N          N       0.49834   0.15249   0.99833  -0.31139
N          N       0.59656   0.28505   0.99462  -0.34073
N          N       0.52839   0.99576   0.81801  -0.34132
N          N       0.75000   0.46226  -0.00000  -0.29109
N          N       0.25000   0.53774   0.00000  -0.29082

