data_crystal

_audit_creation_method 'AiiDA-DDEC plugin'

_cell_length_a        14.79918
_cell_length_b        19.86344
_cell_length_c        21.63854

_cell_angle_alpha     116.87028
_cell_angle_beta     98.45934
_cell_angle_gamma     90.26974

_symmetry_space_group_name_Hall 'P 1'
_symmetry_space_group_name_H-M  'P 1'

loop_
_symmetry_equiv_pos_as_xyz
 'x,y,z'

loop_
_atom_site_label
_atom_site_type_symbol
_atom_site_fract_x
_atom_site_fract_y
_atom_site_fract_z
_atom_site_charge
Cu         Cu      0.87978   0.28967   0.20180   0.38088
Cu         Cu      0.36968   0.38113   0.30335   0.76395
Cu         Cu      0.58512   0.18543   0.28712   0.72085
Cu         Cu      0.62978   0.09112   0.80073   0.37638
Cu         Cu      0.13625   0.08350   0.69927   0.76387
Cu         Cu      0.91923   0.90183   0.71159   0.72773
Cu         Cu      0.12437   0.71033   0.79919   0.37933
Cu         Cu      0.63033   0.61707   0.69538   0.76334
Cu         Cu      0.41748   0.81392   0.71152   0.72178
Cu         Cu      0.37230   0.90850   0.19946   0.38044
Cu         Cu      0.86385   0.91585   0.30036   0.76415
Cu         Cu      0.08231   0.09638   0.28740   0.72694
H          H       0.79323   0.53152   0.65674   0.09545
H          H       0.86991   0.46969   0.55231   0.11713
H          H       0.66007   0.54443   0.44111   0.11499
H          H       0.59172   0.60207   0.55001   0.09780
H          H       0.93409   0.30888   0.34209   0.10299
H          H       0.88966   0.38488   0.45497   0.12867
H          H       0.74868   0.52127   0.36618   0.11631
H          H       0.80376   0.43972   0.25575   0.08079
H          H       0.78100   0.75707   0.21222   0.10050
H          H       0.81529   0.62781   0.19531   0.12246
H          H       0.01223   0.73376   0.38791   0.12552
H          H       0.97009   0.85890   0.39569   0.10494
H          H       0.98389   0.42293   0.14329   0.07997
H          H       0.92347   0.54607   0.16231   0.11398
H          H       0.98738   0.61797   0.38612   0.12437
H          H       0.04090   0.49024   0.35617   0.07739
H          H       0.96342   0.13636   0.74718   0.09434
H          H       0.90099   0.19049   0.85762   0.11431
H          H       0.17047   0.18270   0.96390   0.11000
H          H       0.22154   0.13074   0.84777   0.09524
H          H       0.44654   0.05469   0.19287   0.10669
H          H       0.41509   0.96511   0.06805   0.12229
H          H       0.60040   0.10935   0.03277   0.10863
H          H       0.62329   0.19391   0.16029   0.09807
H          H       0.79695   0.23526   0.05592   0.07411
H          H       0.85069   0.19438   0.94284   0.10847
H          H       0.12771   0.25752   0.05965   0.11569
H          H       0.06333   0.29906   0.16781   0.10265
H          H       0.79869   0.12887   0.37422   0.10369
H          H       0.68326   0.11998   0.38489   0.09698
H          H       0.77483   0.25804   0.38346   0.11028
H          H       0.75604   0.25270   0.45989   0.09442
H          H       0.63714   0.37539   0.45321   0.10565
H          H       0.68848   0.34188   0.37599   0.13214
H          H       0.53731   0.29375   0.46076   0.10891
H          H       0.61602   0.23716   0.48015   0.10678
H          H       0.59840   0.03530   0.28158   0.12698
H          H       0.62866   0.01910   0.20067   0.10849
H          H       0.83720   0.12418   0.27746   0.14140
H          H       0.76055   0.07585   0.19822   0.12515
H          H       0.70785   0.86661   0.34541   0.09424
H          H       0.63390   0.91164   0.45125   0.11924
H          H       0.83153   0.10712   0.54882   0.11642
H          H       0.89791   0.05258   0.43931   0.09709
H          H       0.57089   0.97124   0.66285   0.10220
H          H       0.60890   0.93271   0.54788   0.12774
H          H       0.75473   0.15473   0.62899   0.11512
H          H       0.70641   0.18533   0.74230   0.08065
H          H       0.71417   0.54682   0.78310   0.10014
H          H       0.68472   0.43191   0.79810   0.12194
H          H       0.48135   0.34891   0.60910   0.12672
H          H       0.51968   0.46836   0.60275   0.10337
H          H       0.52608   0.27370   0.85100   0.07958
H          H       0.58082   0.38027   0.83216   0.11328
H          H       0.51059   0.23361   0.60819   0.12325
H          H       0.46327   0.13305   0.63788   0.07745
H          H       0.54217   0.38824   0.25435   0.09304
H          H       0.60534   0.33247   0.14443   0.11406
H          H       0.33697   0.21557   0.03841   0.11119
H          H       0.28512   0.27915   0.15404   0.09374
H          H       0.05172   0.85789   0.80490   0.10742
H          H       0.08193   0.89138   0.92994   0.12201
H          H       0.91133   0.07843   0.96578   0.10725
H          H       0.88907   0.03671   0.83826   0.09806
H          H       0.71180   0.18379   0.94734   0.07439
H          H       0.65688   0.25312   0.05981   0.10868
H          H       0.38040   0.19481   0.94195   0.11528
H          H       0.44577   0.13144   0.83430   0.10330
H          H       0.70382   0.75737   0.62020   0.10503
H          H       0.81981   0.73941   0.61103   0.09781
H          H       0.72993   0.87992   0.61528   0.10925
H          H       0.74837   0.80084   0.53782   0.09598
H          H       0.86780   0.92961   0.54586   0.10773
H          H       0.81625   0.97167   0.62295   0.13114
H          H       0.97005   0.84204   0.54053   0.11047
H          H       0.88896   0.76614   0.51738   0.10592
H          H       0.89934   0.75295   0.71387   0.12474
H          H       0.87032   0.81656   0.79505   0.10661
H          H       0.66363   0.85011   0.71542   0.14094
H          H       0.73535   0.87378   0.79567   0.12620
H          H       0.20817   0.46672   0.34290   0.09591
H          H       0.13301   0.53018   0.44791   0.11772
H          H       0.34227   0.45441   0.55863   0.11477
H          H       0.40941   0.39548   0.44922   0.09792
H          H       0.06848   0.69091   0.65757   0.10248
H          H       0.11300   0.61459   0.54491   0.12764
H          H       0.25338   0.47835   0.63406   0.11665
H          H       0.19790   0.55987   0.74423   0.08005
H          H       0.21992   0.24142   0.78682   0.09993
H          H       0.18571   0.37093   0.80432   0.12225
H          H       0.98667   0.26582   0.61286   0.12694
H          H       0.02891   0.14041   0.60440   0.10592
H          H       0.02115   0.57733   0.85786   0.08039
H          H       0.07953   0.45335   0.83818   0.11377
H          H       0.01164   0.38135   0.61456   0.12449
H          H       0.95994   0.50980   0.64509   0.07755
H          H       0.03575   0.85974   0.25219   0.09361
H          H       0.09817   0.80417   0.14182   0.11368
H          H       0.83111   0.81729   0.03564   0.11014
H          H       0.77975   0.87031   0.15159   0.09523
H          H       0.55598   0.94468   0.80542   0.10723
H          H       0.58722   0.03444   0.93021   0.12175
H          H       0.40269   0.88981   0.96565   0.10823
H          H       0.38061   0.80486   0.83845   0.09755
H          H       0.20475   0.75872   0.94417   0.07281
H          H       0.15036   0.79842   0.05666   0.10809
H          H       0.87336   0.74330   0.93959   0.11493
H          H       0.93832   0.70249   0.83190   0.10192
H          H       0.20223   0.87043   0.62512   0.10331
H          H       0.31732   0.88012   0.61419   0.09721
H          H       0.22721   0.74160   0.61595   0.11069
H          H       0.24466   0.74701   0.53930   0.09564
H          H       0.36426   0.62408   0.54468   0.10669
H          H       0.31302   0.65736   0.62197   0.13145
H          H       0.46132   0.70544   0.53500   0.10892
H          H       0.38421   0.76545   0.51958   0.10762
H          H       0.40212   0.96480   0.71720   0.12662
H          H       0.37309   0.98066   0.79833   0.10875
H          H       0.16438   0.87193   0.72058   0.14175
H          H       0.23932   0.92385   0.80021   0.12730
H          H       0.29035   0.13307   0.65291   0.09301
H          H       0.36464   0.08732   0.54744   0.11865
H          H       0.17093   0.88928   0.45215   0.11573
H          H       0.10395   0.94463   0.56124   0.09618
H          H       0.43208   0.02707   0.33815   0.10219
H          H       0.39371   0.06464   0.45277   0.12737
H          H       0.24272   0.84425   0.36895   0.11456
H          H       0.29192   0.81439   0.25617   0.08075
H          H       0.28357   0.45302   0.21721   0.09999
H          H       0.31317   0.56748   0.20149   0.12244
H          H       0.51839   0.65024   0.38937   0.12721
H          H       0.48006   0.53120   0.39641   0.10307
H          H       0.47355   0.72363   0.14658   0.07972
H          H       0.41830   0.61773   0.16624   0.11325
H          H       0.48862   0.76570   0.38996   0.12386
H          H       0.53624   0.86555   0.35944   0.07797
H          H       0.45670   0.61299   0.74468   0.09366
H          H       0.39411   0.66846   0.85493   0.11383
H          H       0.66314   0.78386   0.96068   0.11069
H          H       0.71462   0.72049   0.84488   0.09506
H          H       0.95245   0.13960   0.19293   0.10749
H          H       0.92507   0.10640   0.06799   0.12041
H          H       0.09128   0.91706   0.03313   0.10862
H          H       0.11315   0.95978   0.16098   0.09790
H          H       0.28976   0.81936   0.05324   0.07594
H          H       0.34364   0.74965   0.94015   0.10881
H          H       0.62047   0.80261   0.05712   0.11553
H          H       0.55602   0.86627   0.16528   0.10405
H          H       0.29856   0.23959   0.37740   0.10515
H          H       0.18317   0.25923   0.38730   0.09712
H          H       0.27160   0.11844   0.38384   0.10999
H          H       0.25259   0.19808   0.46082   0.09428
H          H       0.13369   0.06932   0.45311   0.10656
H          H       0.18430   0.02653   0.37542   0.13253
H          H       0.03217   0.15664   0.45879   0.11010
H          H       0.11244   0.23289   0.48090   0.10687
H          H       0.10144   0.24539   0.28532   0.12587
H          H       0.12971   0.18211   0.20374   0.10737
H          H       0.33704   0.14859   0.28064   0.14029
H          H       0.26265   0.12276   0.20096   0.12633
C          C       0.76579   0.53208   0.60749   0.07795
C          C       0.80864   0.49864   0.54924  -0.18719
C          C       0.77280   0.50152   0.48635   0.09037
C          C       0.69360   0.54128   0.48780  -0.18137
C          C       0.65407   0.57298   0.54791   0.08722
C          C       0.89518   0.35775   0.34971   0.08754
C          C       0.86896   0.40178   0.41399  -0.17594
C          C       0.81182   0.46106   0.42234   0.07374
C          C       0.78936   0.47490   0.36355  -0.18298
C          C       0.81963   0.42936   0.30128   0.06183
C          C       0.83230   0.74889   0.24929   0.08214
C          C       0.85237   0.67722   0.24013  -0.18758
C          C       0.92034   0.66887   0.28871   0.09667
C          C       0.96061   0.73600   0.34760  -0.18531
C          C       0.93741   0.80584   0.35276   0.08260
C          C       0.98311   0.46746   0.19644   0.07048
C          C       0.94847   0.53627   0.20720  -0.19956
C          C       0.95057   0.59409   0.27629   0.07723
C          C       0.98550   0.57701   0.33127  -0.19771
C          C       0.01663   0.50562   0.31458   0.08484
C          C       0.00661   0.14833   0.79677   0.08832
C          C       0.97257   0.17828   0.85909  -0.19360
C          C       0.02980   0.19216   0.92296   0.07731
C          C       0.12207   0.17498   0.91780  -0.19259
C          C       0.15130   0.14498   0.85343   0.06938
C          C       0.48054   0.06440   0.15593   0.08228
C          C       0.46305   0.01408   0.08472  -0.17214
C          C       0.50764   0.02646   0.03693   0.08940
C          C       0.56521   0.09383   0.06564  -0.18204
C          C       0.57877   0.14197   0.13716   0.08623
C          C       0.86956   0.24016   0.05418   0.03667
C          C       0.90044   0.21745   0.99117  -0.19574
C          C       0.99559   0.22039   0.98901   0.06493
C          C       0.05373   0.25068   0.05538  -0.18616
C          C       0.01821   0.27431   0.11689   0.06455
C          C       0.72965   0.14613   0.36525  -0.10338
C          C       0.72953   0.23190   0.40358  -0.10509
C          C       0.63142   0.33152   0.39852  -0.24425
C          C       0.54332   0.33512   0.35374   0.59956
C          C       0.57429   0.24291   0.43663  -0.24484
C          C       0.50131   0.17468   0.39927   0.59198
C          C       0.65678   0.03659   0.25602  -0.24148
C          C       0.72015   0.97679   0.25832   0.57904
C          C       0.76847   0.12488   0.25036  -0.23444
C          C       0.76779   0.19567   0.23916   0.59209
C          C       0.73336   0.91907   0.39216   0.07783
C          C       0.69178   0.94540   0.45119  -0.18624
C          C       0.72519   0.01442   0.51080   0.09075
C          C       0.80027   0.05424   0.50509  -0.18193
C          C       0.83878   0.02409   0.44450   0.09043
C          C       0.60953   0.01149   0.65321   0.08814
C          C       0.63205   0.99028   0.58748  -0.17526
C          C       0.68865   0.03966   0.57615   0.07178
C          C       0.71399   0.11207   0.63363  -0.18259
C          C       0.68767   0.12975   0.69763   0.06286
C          C       0.66269   0.50169   0.74641   0.08052
C          C       0.64535   0.43778   0.75448  -0.18544
C          C       0.57713   0.38104   0.70636   0.09780
C          C       0.53356   0.39105   0.64888  -0.18694
C          C       0.55433   0.45694   0.64463   0.07897
C          C       0.52422   0.26671   0.79784   0.06975
C          C       0.55569   0.32618   0.78719  -0.19942
C          C       0.55005   0.31716   0.71821   0.07376
C          C       0.51518   0.24577   0.66306  -0.19661
C          C       0.48758   0.18947   0.67961   0.08405
C          C       0.49924   0.35011   0.20499   0.08681
C          C       0.53383   0.31798   0.14288  -0.19022
C          C       0.47726   0.26742   0.07911   0.07864
C          C       0.38506   0.25439   0.08431  -0.19460
C          C       0.35534   0.28856   0.14855   0.07374
C          C       0.02038   0.90560   0.84211   0.08353
C          C       0.03735   0.92563   0.91340  -0.17066
C          C       0.99659   0.98756   0.96143   0.08870
C          C       0.94354   0.02872   0.93289  -0.17900
C          C       0.93036   0.00614   0.86135   0.08716
C          C       0.63895   0.18850   0.94859   0.03424
C          C       0.60736   0.22734   0.01136  -0.19318
C          C       0.51207   0.23047   0.01322   0.06508
C          C       0.45453   0.19385   0.94662  -0.18478
C          C       0.49071   0.15754   0.88531   0.06430
C          C       0.77313   0.78434   0.63082  -0.10411
C          C       0.77482   0.83411   0.59433  -0.10627
C          C       0.87341   0.93955   0.60057  -0.24536
C          C       0.96142   0.98786   0.64563   0.59652
C          C       0.93057   0.81366   0.56248  -0.24527
C          C       0.00109   0.78019   0.59910   0.58994
C          C       0.84155   0.78029   0.73962  -0.23839
C          C       0.77621   0.71870   0.73712   0.57688
C          C       0.73247   0.87501   0.74527  -0.23501
C          C       0.73863   0.95832   0.76085   0.59206
C          C       0.23589   0.46639   0.39219   0.07675
C          C       0.19383   0.50066   0.45078  -0.18884
C          C       0.22978   0.49785   0.51369   0.09278
C          C       0.30857   0.45753   0.51196  -0.18182
C          C       0.34741   0.42506   0.45151   0.08624
C          C       0.10761   0.64221   0.65032   0.08752
C          C       0.13375   0.59788   0.58603  -0.17504
C          C       0.19088   0.53861   0.57777   0.07341
C          C       0.21292   0.52480   0.63660  -0.18433
C          C       0.18260   0.57048   0.69882   0.06337
C          C       0.16828   0.24988   0.75012   0.08140
C          C       0.14827   0.32165   0.75961  -0.18726
C          C       0.07985   0.33027   0.71148   0.09774
C          C       0.03883   0.26334   0.65274  -0.18707
C          C       0.06205   0.19336   0.64720   0.08268
C          C       0.02048   0.53256   0.80459   0.07084
C          C       0.05399   0.46329   0.79345  -0.19905
C          C       0.05025   0.40529   0.72425   0.07655
C          C       0.01470   0.42251   0.66948  -0.19765
C          C       0.98472   0.49431   0.68651   0.08451
C          C       0.99300   0.84864   0.20267   0.08728
C          C       0.02714   0.81794   0.14036  -0.19382
C          C       0.97073   0.80526   0.07649   0.07741
C          C       0.87897   0.82419   0.08171  -0.19382
C          C       0.84961   0.85481   0.14607   0.07138
C          C       0.52208   0.93494   0.84240   0.07984
C          C       0.53953   0.98533   0.91361  -0.17123
C          C       0.49505   0.97299   0.96147   0.08779
C          C       0.43789   0.90543   0.93286  -0.18050
C          C       0.42458   0.85706   0.86140   0.08499
C          C       0.13190   0.75564   0.94570   0.03586
C          C       0.10058   0.77763   0.00846  -0.19512
C          C       0.00528   0.77687   0.01052   0.06413
C          C       0.94752   0.74878   0.94409  -0.18468
C          C       0.98344   0.72574   0.88278   0.06426
C          C       0.27155   0.85353   0.63391  -0.10474
C          C       0.27193   0.76779   0.59548  -0.10818
C          C       0.37011   0.66781   0.59948  -0.24675
C          C       0.45846   0.66348   0.64366   0.60016
C          C       0.42642   0.75697   0.56139  -0.24527
C          C       0.50174   0.82333   0.59874   0.59021
C          C       0.34423   0.96306   0.74309  -0.24093
C          C       0.28022   0.02272   0.74123   0.57764
C          C       0.23344   0.87398   0.74877  -0.23844
C          C       0.23690   0.80412   0.76151   0.59458
C          C       0.26560   0.07991   0.60671   0.07940
C          C       0.30740   0.05320   0.54782  -0.18834
C          C       0.27498   0.98348   0.48867   0.09079
C          C       0.20097   0.94314   0.49511  -0.17984
C          C       0.16218   0.97370   0.55558   0.08830
C          C       0.39240   0.98683   0.34713   0.08622
C          C       0.36952   0.00754   0.41266  -0.17357
C          C       0.31155   0.95841   0.42333   0.06983
C          C       0.28500   0.88667   0.36513  -0.18320
C          C       0.31178   0.86941   0.30136   0.06285
C          C       0.33557   0.49792   0.25346   0.08064
C          C       0.35294   0.56161   0.24500  -0.18598
C          C       0.42177   0.61808   0.29253   0.09794
C          C       0.46577   0.60819   0.34996  -0.18618
C          C       0.44497   0.54247   0.35455   0.07865
C          C       0.47529   0.73102   0.19987   0.06926
C          C       0.44354   0.67195   0.21099  -0.19893
C          C       0.44903   0.68160   0.28016   0.07538
C          C       0.48408   0.75312   0.33498  -0.19787
C          C       0.51195   0.80899   0.31797   0.08362
C          C       0.50003   0.65056   0.79407   0.08381
C          C       0.46572   0.68257   0.85636  -0.18822
C          C       0.52274   0.73250   0.92014   0.07809
C          C       0.61489   0.74527   0.91475  -0.19315
C          C       0.64435   0.71121   0.85038   0.07232
C          C       0.98399   0.09171   0.15609   0.08252
C          C       0.96825   0.07162   0.08482  -0.17080
C          C       0.00842   0.00904   0.03709   0.08884
C          C       0.06007   0.96748   0.06592  -0.18007
C          C       0.07270   0.99052   0.13761   0.08976
C          C       0.36236   0.81294   0.05156   0.03572
C          C       0.39334   0.77403   0.98853  -0.19348
C          C       0.48846   0.76935   0.98633   0.06489
C          C       0.54646   0.80466   0.05279  -0.18326
C          C       0.51083   0.84102   0.11436   0.06231
C          C       0.22885   0.21354   0.36731  -0.10177
C          C       0.22662   0.16426   0.40430  -0.10596
C          C       0.12754   0.05897   0.39825  -0.24471
C          C       0.03899   0.01094   0.35355   0.59718
C          C       0.07083   0.18487   0.43628  -0.24659
C          C      -0.00065   0.21715   0.39916   0.58894
C          C       0.15891   0.21805   0.25913  -0.24175
C          C       0.22407   0.27973   0.26170   0.57883
C          C       0.26793   0.12285   0.25208  -0.23423
C          C       0.26326   0.04010   0.23828   0.59243
N          N       0.68836   0.56799   0.60706  -0.24266
N          N       0.87016   0.36985   0.29276  -0.21759
N          N       0.87566   0.81279   0.30368  -0.26554
N          N       0.01784   0.45124   0.24883  -0.26324
N          N       0.09479   0.13114   0.79296  -0.25108
N          N       0.53962   0.12698   0.18277  -0.22842
N          N       0.92626   0.26871   0.11764  -0.24226
N          N       0.63510   0.25436   0.39255  -0.04519
N          N       0.69636   0.11609   0.28810  -0.05700
N          N       0.80729   0.95684   0.38881  -0.24305
N          N       0.63793   0.08005   0.70895  -0.21536
N          N       0.61650   0.51253   0.69332  -0.26293
N          N       0.48953   0.19871   0.74537  -0.26292
N          N       0.41112   0.33594   0.20891  -0.25145
N          N       0.96549   0.94392   0.81553  -0.22615
N          N       0.58287   0.15300   0.88486  -0.24084
N          N       0.86956   0.86810   0.60645  -0.04640
N          N       0.80466   0.82911   0.70825  -0.06140
N          N       0.31282   0.42978   0.39228  -0.24146
N          N       0.13263   0.63034   0.70742  -0.21790
N          N       0.12440   0.18619   0.69583  -0.26305
N          N       0.98530   0.54896   0.75242  -0.26290
N          N       0.90541   0.86767   0.20655  -0.25263
N          N       0.46334   0.87216   0.81568  -0.22691
N          N       0.07563   0.72988   0.88228  -0.24168
N          N       0.36649   0.74523   0.60588  -0.04265
N          N       0.30513   0.88345   0.71098  -0.05748
N          N       0.19237   0.04182   0.61059  -0.24453
N          N       0.36316   0.91887   0.29081  -0.21484
N          N       0.38235   0.48698   0.30630  -0.26164
N          N       0.51006   0.79916   0.25204  -0.26123
N          N       0.58828   0.66417   0.79002  -0.24838
N          N       0.03778   0.05314   0.18307  -0.22585
N          N       0.41890   0.84682   0.11515  -0.24079
N          N       0.13175   0.13039   0.39227  -0.04427
N          N       0.19637   0.16890   0.28997  -0.06224
O          O       0.50938   0.27332   0.30074  -0.52930
O          O       0.50941   0.39827   0.36969  -0.58979
O          O       0.49989   0.13110   0.33382  -0.60267
O          O       0.44984   0.16881   0.43813  -0.59315
O          O       0.80495  -0.00049   0.28456  -0.53052
O          O       0.68615   0.90998   0.23464  -0.58349
O          O       0.71385   0.24572   0.26529  -0.58315
O          O       0.82552   0.19559   0.20000  -0.55506
O          O       0.99588   0.97693   0.69762  -0.53506
O          O       0.99479   0.03663   0.63086  -0.59002
O          O       0.00412   0.80197   0.66493  -0.60104
O          O       0.04994   0.73414   0.55933  -0.59282
O          O       0.69196   0.71444   0.70942  -0.52898
O          O       0.80915   0.67643   0.76236  -0.58402
O          O       0.79534   0.98330   0.73677  -0.58100
O          O       0.68178   0.99712   0.80039  -0.55474
O          O       0.49442   0.72526   0.69568  -0.53021
O          O       0.49063   0.59967   0.62791  -0.59088
O          O       0.50435   0.86700   0.66439  -0.60016
O          O       0.55348   0.82784   0.55940  -0.59150
O          O       0.19534   0.00001   0.71540  -0.52983
O          O       0.31410   0.08955   0.76494  -0.58365
O          O       0.29039   0.75405   0.73429  -0.58179
O          O       0.18174   0.80452   0.80253  -0.55912
O          O       0.00527   0.02036   0.30049  -0.53580
O          O       0.00466   0.96351   0.36955  -0.59013
O          O       0.99620   0.19468   0.33325  -0.59938
O          O       0.95006   0.26314   0.43847  -0.59266
O          O       0.30871   0.28279   0.28796  -0.53162
O          O       0.19089   0.32320   0.23794  -0.58432
O          O       0.20923   0.01645   0.26520  -0.58107
O          O       0.31813   0.00037   0.19710  -0.55724

