data_crystal

_audit_creation_method 'AiiDA-DDEC plugin'

_cell_length_a         9.91707
_cell_length_b        18.99951
_cell_length_c        32.46559

_cell_angle_alpha     89.98582
_cell_angle_beta     89.80500
_cell_angle_gamma     89.91734

_symmetry_space_group_name_Hall 'P 1'
_symmetry_space_group_name_H-M  'P 1'

loop_
_symmetry_equiv_pos_as_xyz
 'x,y,z'

loop_
_atom_site_label
_atom_site_type_symbol
_atom_site_fract_x
_atom_site_fract_y
_atom_site_fract_z
_atom_site_charge
Zn         Zn      0.74961   0.90431   0.94489   0.69921
Zn         Zn      0.97085   0.93659   0.78017   0.69228
Zn         Zn      0.24958   0.59574   0.44447   0.69705
Zn         Zn      0.02863   0.56323   0.28011   0.69276
Zn         Zn      0.25014   0.09512   0.55542   0.69627
Zn         Zn      0.47153   0.06504   0.71980   0.69276
Zn         Zn      0.74986   0.40413   0.05537   0.69813
Zn         Zn      0.52874   0.43484   0.21982   0.69291
Zn         Zn      0.25038   0.09569   0.05512   0.69920
Zn         Zn      0.02914   0.06340   0.21983   0.69233
Zn         Zn      0.75041   0.40426   0.55554   0.69715
Zn         Zn      0.97136   0.43677   0.71989   0.69261
Zn         Zn      0.74985   0.90488   0.44458   0.69628
Zn         Zn      0.52846   0.93495   0.28020   0.69267
Zn         Zn      0.25013   0.59586   0.94463   0.69821
Zn         Zn      0.47125   0.56516   0.78018   0.69287
H          H       0.93615   0.82316   0.00714   0.10303
H          H       0.98335   0.69429   0.02173   0.14583
H          H       0.84961   0.60431   0.98407   0.12662
H          H       0.67869   0.64256   0.93281   0.11536
H          H       0.55017   0.68268   0.88819   0.12456
H          H       0.37994   0.73782   0.84222   0.12131
H          H       0.36117   0.86787   0.83905   0.14499
H          H       0.51460   0.94046   0.88454   0.10023
H          H       0.04077   0.98296   0.97435   0.12534
H          H       0.36583   0.04755   0.89450   0.12185
H          H       0.24420   0.00167   0.83193   0.13428
H          H       0.88413   0.73361   0.74180   0.11638
H          H       0.85674   0.60490   0.72889   0.11785
H          H       0.28569   0.70360   0.78854   0.11786
H          H       0.06175   0.67667   0.50691   0.10347
H          H       0.01493   0.80547   0.52181   0.14635
H          H       0.14917   0.89560   0.48416   0.12644
H          H       0.32050   0.85752   0.43263   0.11451
H          H       0.45100   0.81761   0.38821   0.12496
H          H       0.62237   0.76241   0.34225   0.11924
H          H       0.64030   0.63241   0.33867   0.14587
H          H       0.48468   0.55973   0.38385   0.10041
H          H       0.95754   0.51740   0.47453   0.12638
H          H       0.63249   0.45205   0.39588   0.12147
H          H       0.75403   0.49720   0.33280   0.13450
H          H       0.11675   0.76667   0.24179   0.11641
H          H       0.14389   0.89536   0.22875   0.11801
H          H       0.71391   0.79634   0.28840   0.11791
H          H       0.43827   0.17643   0.49276   0.10331
H          H       0.48540   0.30523   0.47828   0.14567
H          H       0.35103   0.39527   0.51611   0.12560
H          H       0.17939   0.35707   0.56744   0.11490
H          H       0.04915   0.31729   0.61176   0.12416
H          H       0.87826   0.26230   0.65783   0.11952
H          H       0.86024   0.13229   0.66131   0.14598
H          H       0.01551   0.05948   0.61600   0.10040
H          H       0.54191   0.01857   0.52523   0.12611
H          H       0.86859   0.95200   0.60329   0.12163
H          H       0.74772   0.99656   0.66662   0.13450
H          H       0.38373   0.26724   0.75815   0.11657
H          H       0.35613   0.39588   0.77133   0.11813
H          H       0.78642   0.29684   0.71155   0.11804
H          H       0.56399   0.32340   0.99287   0.10299
H          H       0.51692   0.19453   0.97829   0.14647
H          H       0.65070   0.10438   0.01607   0.12588
H          H       0.82116   0.14256   0.06742   0.11477
H          H       0.95019   0.18247   0.11187   0.12468
H          H       0.12037   0.23746   0.15777   0.11997
H          H       0.13881   0.36748   0.16092   0.14479
H          H       0.98493   0.44022   0.11551   0.10040
H          H       0.45935   0.48306   0.02561   0.12605
H          H       0.13295   0.54844   0.10468   0.12176
H          H       0.25348   0.50287   0.16756   0.13557
H          H       0.61555   0.23288   0.25809   0.11612
H          H       0.64324   0.10423   0.27127   0.11830
H          H       0.21390   0.20303   0.21154   0.11792
H          H       0.06384   0.17684   0.99286   0.10315
H          H       0.01664   0.30571   0.97827   0.14591
H          H       0.15038   0.39568   0.01594   0.12651
H          H       0.32130   0.35743   0.06719   0.11529
H          H       0.44983   0.31732   0.11181   0.12455
H          H       0.62005   0.26217   0.15779   0.12122
H          H       0.63882   0.13212   0.16095   0.14496
H          H       0.48540   0.05954   0.11546   0.10034
H          H       0.95922   0.01704   0.02565   0.12517
H          H       0.63417   0.95244   0.10550   0.12211
H          H       0.75579  -0.00167   0.16807   0.13437
H          H       0.11586   0.26639   0.25820   0.11631
H          H       0.14325   0.39510   0.27111   0.11768
H          H       0.71430   0.29640   0.21146   0.11800
H          H       0.93824   0.32333   0.49309   0.10324
H          H       0.98506   0.19453   0.47819   0.14621
H          H       0.85082   0.10440   0.51585   0.12652
H          H       0.67949   0.14247   0.56737   0.11470
H          H       0.54899   0.18239   0.61180   0.12505
H          H       0.37763   0.23758   0.65775   0.11943
H          H       0.35969   0.36759   0.66133   0.14604
H          H       0.51531   0.44027   0.61615   0.10027
H          H       0.04245   0.48259   0.52547   0.12638
H          H       0.36750   0.54795   0.60413   0.12122
H          H       0.24597   0.50280   0.66720   0.13460
H          H       0.88324   0.23333   0.75821   0.11645
H          H       0.85610   0.10464   0.77125   0.11850
H          H       0.28608   0.20365   0.71160   0.11757
H          H       0.56172   0.82357   0.50724   0.10335
H          H       0.51459   0.69476   0.52173   0.14579
H          H       0.64896   0.60472   0.48389   0.12577
H          H       0.82060   0.64292   0.43256   0.11485
H          H       0.95084   0.68270   0.38825   0.12435
H          H       0.12173   0.73770   0.34217   0.11934
H          H       0.13975   0.86771   0.33869   0.14575
H          H       0.98448   0.94052   0.38401   0.10028
H          H       0.45808   0.98142   0.47477   0.12610
H          H       0.13140   0.04800   0.39672   0.12169
H          H       0.25227   0.00343   0.33338   0.13448
H          H       0.61626   0.73275   0.24186   0.11640
H          H       0.64386   0.60411   0.22867   0.11799
H          H       0.21357   0.70316   0.28846   0.11820
H          H       0.43600   0.67660   0.00713   0.10310
H          H       0.48307   0.80546   0.02171   0.14644
H          H       0.34929   0.89561   0.98393   0.12575
H          H       0.17883   0.85743   0.93258   0.11466
H          H       0.04980   0.81753   0.88813   0.12457
H          H       0.87963   0.76254   0.84223   0.11991
H          H       0.86118   0.63252   0.83909   0.14478
H          H       0.01506   0.55977   0.88449   0.10047
H          H       0.54064   0.51694   0.97440   0.12616
H          H       0.86704   0.45156   0.89533   0.12172
H          H       0.74651   0.49712   0.83244   0.13554
H          H       0.38444   0.76712   0.74191   0.11631
H          H       0.35675   0.89576   0.72873   0.11941
H          H       0.78609   0.79697   0.78846   0.11792
C          C       0.88175   0.78125   0.99149   0.09198
C          C       0.90674   0.71051  -0.00028  -0.11663
C          C       0.83236   0.66008   0.97828  -0.00726
C          C       0.73652   0.68168   0.94958  -0.15946
C          C       0.71688   0.75373   0.94262   0.15857
C          C       0.61760   0.78226   0.91286   0.15118
C          C       0.53836   0.73945   0.88769  -0.13499
C          C       0.44458   0.77032   0.86139   0.00280
C          C       0.43365   0.84343   0.85975  -0.10865
C          C       0.51784   0.88324   0.88485   0.09662
C          C       0.01417   0.96478   0.90883   0.10848
C          C       0.08403   0.98763   0.94375  -0.17539
C          C       0.21115   0.01725   0.93767  -0.04161
C          C       0.28597   0.04796   0.97383   0.55381
C          C       0.26755   0.02256   0.89733  -0.11299
C          C       0.20041  -0.00158   0.86266  -0.14068
C          C       0.07103   0.96969   0.86894   0.12032
C          C       0.09290   0.80255   0.77768   0.55670
C          C       0.08537   0.72572   0.76645  -0.04220
C          C       0.96618   0.69756   0.74847  -0.09190
C          C       0.95108   0.62646   0.74024  -0.15365
C          C       0.06278   0.58308   0.74851   0.11396
C          C       0.18332   0.61116   0.76469   0.11556
C          C       0.19467   0.68239   0.77507  -0.17283
C          C       0.11646   0.71863   0.49126   0.09214
C          C       0.09163   0.78933   0.49967  -0.11799
C          C       0.16635   0.83986   0.47824  -0.00590
C          C       0.26238   0.81836   0.44938  -0.16036
C          C       0.28203   0.74634   0.44229   0.15885
C          C       0.38195   0.71791   0.41249   0.15171
C          C       0.46226   0.76079   0.38750  -0.13587
C          C       0.55670   0.72991   0.36123   0.00387
C          C       0.56718   0.65679   0.35934  -0.10943
C          C       0.48196   0.61695   0.38428   0.09606
C          C       0.98404   0.53555   0.40892   0.10862
C          C       0.91465   0.51260   0.44400  -0.17385
C          C       0.78791   0.48256   0.43835  -0.04283
C          C       0.71522   0.45201   0.47500   0.55078
C          C       0.73088   0.47699   0.39828  -0.11239
C          C       0.79783   0.50102   0.36340  -0.13993
C          C       0.92709   0.53010   0.36919   0.11922
C          C       0.90722   0.69753   0.27766   0.55770
C          C       0.91482   0.77435   0.26637  -0.04391
C          C       0.03435   0.80260   0.24840  -0.08955
C          C       0.04943   0.87371   0.24014  -0.15526
C          C       0.93744   0.91701   0.24841   0.11528
C          C       0.81660   0.88885   0.26457   0.11520
C          C       0.80522   0.81761   0.27497  -0.17233
C          C       0.38350   0.21829   0.50854   0.09100
C          C       0.40852   0.28903   0.50033  -0.11711
C          C       0.33373   0.33951   0.52185  -0.00585
C          C       0.23756   0.31794   0.55061  -0.15954
C          C       0.21790   0.24589   0.55754   0.15872
C          C       0.11808   0.21757   0.58738   0.15238
C          C       0.03789   0.26051   0.61243  -0.13548
C          C       0.94367   0.22973   0.63876   0.00469
C          C       0.93317   0.15663   0.64061  -0.10983
C          C       0.01822   0.11671   0.61561   0.09684
C          C       0.51633   0.03564   0.59089   0.10740
C          C       0.58554   0.01319   0.55564  -0.17257
C          C       0.71275   0.98319   0.56103  -0.04365
C          C       0.78493   0.95334   0.52405   0.55184
C          C       0.77011   0.97707   0.60104  -0.11354
C          C       0.70342   0.00074   0.63609  -0.13905
C          C       0.57394   0.02997   0.63054   0.12081
C          C       0.59309   0.19828   0.72231   0.55861
C          C       0.58564   0.27501   0.73358  -0.04488
C          C       0.46597   0.30320   0.75159  -0.08979
C          C       0.45070   0.37427   0.75993  -0.15418
C          C       0.56251   0.41759   0.75169   0.11658
C          C       0.68351   0.38940   0.73550   0.11491
C          C       0.69513   0.31818   0.72502  -0.17208
C          C       0.61829   0.28140   0.00856   0.09305
C          C       0.59341   0.21068   0.00033  -0.11835
C          C       0.66775   0.16015   0.02183  -0.00642
C          C       0.76341   0.18169   0.05056  -0.15925
C          C       0.78295   0.25371   0.05750   0.15780
C          C       0.88220   0.28211   0.08725   0.15196
C          C       0.96175   0.23923   0.11236  -0.13610
C          C       0.05555   0.27001   0.13862   0.00456
C          C       0.06629   0.34310   0.14026  -0.10872
C          C       0.98184   0.38300   0.11522   0.09675
C          C       0.48472   0.46497   0.09119   0.10820
C          C       0.41559   0.48775   0.05612  -0.17351
C          C       0.28835   0.51757   0.06184  -0.04178
C          C       0.21537   0.54793   0.02522   0.55000
C          C       0.23116   0.52318   0.10205  -0.11399
C          C       0.29771   0.49914   0.13691  -0.13948
C          C       0.42723   0.47006   0.13100   0.11917
C          C       0.40684   0.30173   0.22229   0.55946
C          C       0.41422   0.22497   0.23353  -0.04571
C          C       0.53358   0.19684   0.25154  -0.08943
C          C       0.54880   0.12578   0.25991  -0.15473
C          C       0.43721   0.08241   0.25173   0.11539
C          C       0.31655   0.11053   0.23552   0.11408
C          C       0.30498   0.18174   0.22501  -0.17061
C          C       0.11825   0.21875   0.00851   0.09194
C          C       0.09325   0.28948   0.00028  -0.11669
C          C       0.16764   0.33992   0.02173  -0.00727
C          C       0.26347   0.31832   0.05042  -0.15963
C          C       0.28312   0.24626   0.05739   0.15854
C          C       0.38239   0.21774   0.08714   0.15132
C          C       0.46163   0.26054   0.11231  -0.13508
C          C       0.55541   0.22967   0.13861   0.00252
C          C       0.56634   0.15657   0.14026  -0.10843
C          C       0.48215   0.11676   0.11516   0.09674
C          C       0.98582   0.03522   0.09117   0.10859
C          C       0.91597   0.01237   0.05625  -0.17547
C          C       0.78884   0.98275   0.06234  -0.04166
C          C       0.71403   0.95203   0.02617   0.55378
C          C       0.73244   0.97743   0.10268  -0.11302
C          C       0.79958   0.00158   0.13734  -0.14040
C          C       0.92896   0.03030   0.13106   0.12036
C          C       0.90709   0.19745   0.22232   0.55680
C          C       0.91463   0.27427   0.23355  -0.04220
C          C       0.03382   0.30243   0.25153  -0.09181
C          C       0.04892   0.37354   0.25976  -0.15370
C          C       0.93721   0.41692   0.25149   0.11400
C          C       0.81667   0.38884   0.23532   0.11536
C          C       0.80532   0.31761   0.22493  -0.17270
C          C       0.88353   0.28137   0.50874   0.09190
C          C       0.90836   0.21067   0.50033  -0.11811
C          C       0.83364   0.16014   0.52176  -0.00596
C          C       0.73761   0.18164   0.55062  -0.16018
C          C       0.71796   0.25366   0.55771   0.15912
C          C       0.61804   0.28208   0.58751   0.15164
C          C       0.53774   0.23920   0.61250  -0.13593
C          C       0.44329   0.27009   0.63878   0.00418
C          C       0.43281   0.34320   0.64066  -0.10951
C          C       0.51803   0.38304   0.61572   0.09612
C          C       0.01595   0.46445   0.59108   0.10859
C          C       0.08534   0.48739   0.55600  -0.17386
C          C       0.21208   0.51743   0.56165  -0.04284
C          C       0.28477   0.54799   0.52500   0.55107
C          C       0.26911   0.52300   0.60172  -0.11235
C          C       0.20216   0.49898   0.63660  -0.14001
C          C       0.07290   0.46990   0.63081   0.11901
C          C       0.09278   0.30247   0.72235   0.55779
C          C       0.08517   0.22564   0.73363  -0.04387
C          C       0.96564   0.19739   0.75160  -0.08934
C          C       0.95057   0.12629   0.75986  -0.15556
C          C       0.06256   0.08299   0.75159   0.11536
C          C       0.18340   0.11115   0.73543   0.11521
C          C       0.19477   0.18239   0.72503  -0.17233
C          C       0.61649   0.78171   0.49146   0.09100
C          C       0.59147   0.71097   0.49967  -0.11678
C          C       0.66626   0.66048   0.47815  -0.00579
C          C       0.76244   0.68206   0.44939  -0.15968
C          C       0.78209   0.75411   0.44246   0.15876
C          C       0.88192   0.78242   0.41262   0.15242
C          C       0.96210   0.73949   0.38757  -0.13555
C          C       0.05632   0.77027   0.36124   0.00478
C          C       0.06683   0.84337   0.35939  -0.10983
C          C       0.98177   0.88329   0.38439   0.09666
C          C       0.48367   0.96436   0.40911   0.10741
C          C       0.41445   0.98680   0.44436  -0.17241
C          C       0.28724   0.01681   0.43897  -0.04377
C          C       0.21506   0.04666   0.47595   0.55185
C          C       0.22988   0.02293   0.39896  -0.11343
C          C       0.29657  -0.00074   0.36391  -0.13918
C          C       0.42605   0.97002   0.36946   0.12098
C          C       0.40690   0.80171   0.27769   0.55852
C          C       0.41435   0.72499   0.26642  -0.04509
C          C       0.53402   0.69679   0.24842  -0.08980
C          C       0.54929   0.62573   0.24007  -0.15429
C          C       0.43748   0.58240   0.24831   0.11659
C          C       0.31648   0.61060   0.26450   0.11493
C          C       0.30487   0.68181   0.27498  -0.17200
C          C       0.38170   0.71860   0.99144   0.09293
C          C       0.40658   0.78932  -0.00033  -0.11833
C          C       0.33224   0.83984   0.97817  -0.00658
C          C       0.23658   0.81831   0.94944  -0.15907
C          C       0.21704   0.74629   0.94251   0.15781
C          C       0.11780   0.71788   0.91275   0.15178
C          C       0.03824   0.76076   0.88764  -0.13615
C          C       0.94445   0.72998   0.86138   0.00447
C          C       0.93370   0.65690   0.85974  -0.10837
C          C       0.01816   0.61699   0.88478   0.09671
C          C       0.51527   0.53502   0.90881   0.10819
C          C       0.58440   0.51225   0.94388  -0.17335
C          C       0.71164   0.48243   0.93816  -0.04174
C          C       0.78462   0.45206   0.97478   0.54983
C          C       0.76884   0.47682   0.89796  -0.11411
C          C       0.70228   0.50086   0.86310  -0.13965
C          C       0.57276   0.52994   0.86901   0.11905
C          C       0.59315   0.69827   0.77771   0.55896
C          C       0.58577   0.77502   0.76647  -0.04560
C          C       0.46642   0.80316   0.74846  -0.08951
C          C       0.45119   0.87422   0.74009  -0.15572
C          C       0.56278   0.91759   0.74827   0.11571
C          C       0.68344   0.88946   0.76448   0.11409
C          C       0.69501   0.81825   0.77499  -0.17074
N          N       0.60641   0.85363   0.91107  -0.25738
N          N       0.78997   0.80213   0.96356  -0.26261
N          N       0.88860   0.93522   0.90405  -0.23725
N          N       0.86846   0.92280   0.86386  -0.04924
N          N       0.97644   0.94322   0.84239  -0.20017
N          N       0.27311   0.55616   0.76732  -0.21793
N          N       0.21315   0.49749   0.75433  -0.04498
N          N       0.08594   0.51232   0.74313  -0.23081
N          N       0.39291   0.64653   0.41055  -0.25603
N          N       0.20855   0.69787   0.46321  -0.26282
N          N       0.10938   0.56532   0.40383  -0.23754
N          N       0.12944   0.57729   0.36355  -0.04913
N          N       0.02161   0.55645   0.34235  -0.20110
N          N       0.72662   0.94378   0.26718  -0.21692
N          N       0.78673   0.00249   0.25418  -0.04494
N          N       0.91422   0.98774   0.24299  -0.23209
N          N       0.10712   0.14623   0.58932  -0.25677
N          N       0.29128   0.19739   0.53651  -0.26205
N          N       0.39094   0.06547   0.59619  -0.23702
N          N       0.37158   0.07741   0.63648  -0.04801
N          N       0.47977   0.05645   0.65753  -0.20260
N          N       0.77322   0.44434   0.73293  -0.21586
N          N       0.71278   0.50303   0.74592  -0.04835
N          N       0.58537   0.48837   0.75712  -0.23240
N          N       0.89318   0.35347   0.08906  -0.25659
N          N       0.70987   0.30217   0.03652  -0.26220
N          N       0.60998   0.43498   0.09610  -0.23580
N          N       0.62934   0.42229   0.13628  -0.05107
N          N       0.52127   0.44305   0.15765  -0.20050
N          N       0.22702   0.05555   0.23293  -0.21530
N          N       0.28725   0.99689   0.24596  -0.04711
N          N       0.41436   0.01162   0.25719  -0.23285
N          N       0.39359   0.14637   0.08893  -0.25751
N          N       0.21002   0.19787   0.03644  -0.26245
N          N       0.11139   0.06477   0.09595  -0.23760
N          N       0.13154   0.07719   0.13615  -0.04961
N          N       0.02355   0.05678   0.15761  -0.19987
N          N       0.72688   0.44383   0.23268  -0.21752
N          N       0.78684   0.50251   0.24567  -0.04508
N          N       0.91406   0.48768   0.25688  -0.23118
N          N       0.60708   0.35346   0.58945  -0.25632
N          N       0.79145   0.30213   0.53679  -0.26288
N          N       0.89061   0.43467   0.59617  -0.23769
N          N       0.87055   0.42270   0.63645  -0.04841
N          N       0.97838   0.44354   0.65765  -0.20106
N          N       0.27337   0.05622   0.73283  -0.21748
N          N       0.21326   0.99750   0.74582  -0.04479
N          N       0.08577   0.01225   0.75701  -0.23175
N          N       0.89287   0.85377   0.41068  -0.25662
N          N       0.70871   0.80261   0.46350  -0.26226
N          N       0.60905   0.93453   0.40382  -0.23705
N          N       0.62841   0.92258   0.36352  -0.04837
N          N       0.52023   0.94354   0.34247  -0.20261
N          N       0.22677   0.55566   0.26707  -0.21591
N          N       0.28721   0.49697   0.25408  -0.04754
N          N       0.41462   0.51163   0.24288  -0.23292
N          N       0.10681   0.64653   0.91094  -0.25642
N          N       0.29012   0.69782   0.96348  -0.26207
N          N       0.39001   0.56502   0.90391  -0.23558
N          N       0.37065   0.57770   0.86373  -0.05070
N          N       0.47872   0.55695   0.84235  -0.20091
N          N       0.77298   0.94445   0.76707  -0.21524
N          N       0.71274   0.00311   0.75404  -0.04770
N          N       0.58563   0.98837   0.74281  -0.23288
O          O      -0.00007   0.84109   0.76038  -0.54730
O          O       0.17981   0.82470   0.80222  -0.56746
O          O       0.38667   0.08579   0.96876  -0.54026
O          O       0.23169   0.03203   0.00978  -0.56474
O          O       0.00032   0.65894   0.26032  -0.54760
O          O       0.81994   0.67538   0.30226  -0.56781
O          O       0.61385   0.41435   0.47095  -0.53946
O          O       0.77287   0.46786   0.51035  -0.56129
O          O       0.49943   0.16023   0.73969  -0.54578
O          O       0.68008   0.17554   0.69777  -0.56723
O          O       0.88549   0.91454   0.52730  -0.54177
O          O       0.72752   0.97068   0.48892  -0.56006
O          O       0.50032   0.33970   0.23966  -0.54730
O          O       0.32021   0.32450   0.19782  -0.56689
O          O       0.11355   0.58549   0.02931  -0.54000
O          O       0.27286   0.53211   0.98973  -0.56252
O          O       0.00007   0.15891   0.23963  -0.54741
O          O       0.82018   0.17530   0.19778  -0.56734
O          O       0.61333   0.91421   0.03124  -0.53986
O          O       0.76830   0.96797   0.99023  -0.56509
O          O      -0.00033   0.34106   0.73969  -0.54743
O          O       0.18005   0.32462   0.69774  -0.56825
O          O       0.38614   0.58565   0.52905  -0.54002
O          O       0.22712   0.53214   0.48965  -0.56116
O          O       0.50056   0.83977   0.26031  -0.54609
O          O       0.31991   0.82446   0.30223  -0.56683
O          O       0.11450   0.08546   0.47270  -0.54167
O          O       0.27247   0.02932   0.51108  -0.55994
O          O       0.49967   0.66030   0.76034  -0.54698
O          O       0.67978   0.67550   0.80218  -0.56672
O          O       0.88644   0.41450   0.97069  -0.54008
O          O       0.72713   0.46789   0.01027  -0.56237

