data_crystal

_audit_creation_method 'AiiDA-DDEC plugin'

_cell_length_a        13.87534
_cell_length_b        21.71828
_cell_length_c        34.65848

_cell_angle_alpha     89.95261
_cell_angle_beta     95.21227
_cell_angle_gamma     90.02368

_symmetry_space_group_name_Hall 'P 1'
_symmetry_space_group_name_H-M  'P 1'

loop_
_symmetry_equiv_pos_as_xyz
 'x,y,z'

loop_
_atom_site_label
_atom_site_type_symbol
_atom_site_fract_x
_atom_site_fract_y
_atom_site_fract_z
_atom_site_charge
Co         Co      0.47567   0.50697   0.85413   1.15294
Co         Co      0.30554   0.57455   0.82038   1.23452
Co         Co      0.28578   0.42516   0.83575   1.13254
Co         Co      0.97419   0.99341   0.35440   1.15556
Co         Co      0.80312   0.92592   0.32033   1.23755
Co         Co      0.78501   0.07515   0.33579   1.13053
Co         Co      0.02579   0.00692   0.64588   1.15565
Co         Co      0.19647   0.07456   0.68024   1.24145
Co         Co      0.21473   0.92501   0.66438   1.13175
Co         Co      0.52470   0.49346   0.14599   1.15308
Co         Co      0.69468   0.42527   0.17978   1.23587
Co         Co      0.71460   0.57466   0.16416   1.13268
H          H       0.74210   0.04043   0.08880   0.27238
H          H       0.50751   0.12161   0.93614   0.27126
H          H       0.60844   0.89837   0.01466   0.11332
H          H       0.58835   0.03460   0.92431   0.12318
H          H       0.65889   0.08949   0.04289   0.12236
H          H       0.66622   0.85419   0.95705   0.27164
H          H       0.09661   0.10733   0.94318   0.27092
H          H       0.12326   0.82852   0.99390   0.28058
H          H       0.15637   0.01887   0.12088   0.28973
H          H       0.08189   0.88421   0.03425   0.11664
H          H       0.42245   0.17520   0.89056   0.12660
H          H       0.15269   0.01548   0.94832   0.10673
H          H       0.38913   0.27353   0.85491   0.12125
H          H       0.64645   0.91546   0.14784   0.12761
H          H       0.65478   0.92328   0.21993   0.12506
H          H       0.12474   0.07481   0.06506   0.12148
H          H       0.62869   0.35874   0.92175   0.12405
H          H       0.76251   0.09886   0.14276   0.12662
H          H       0.14375   0.00949   0.25531   0.13095
H          H       0.76994   0.10626   0.21474   0.12793
H          H       0.64832   0.65620   0.90979   0.12441
H          H       0.16305   0.73021   0.99429   0.12234
H          H       0.11212   0.82816   0.88622   0.12635
H          H       0.70106   0.75580   0.94073   0.12589
H          H       0.15680   0.73337   0.85091   0.12162
H          H       0.15274   0.24506   0.84875   0.13051
H          H       0.43367   0.84011   0.89481   0.12804
H          H       0.38227   0.74055   0.86378   0.12282
H          H       0.66589   0.25939   0.95649   0.12693
H          H       0.11479   0.15142   0.88600   0.13114
H          H       0.22319   0.24106   0.99223   0.12861
H          H       0.21115   0.63704   0.95853   0.12700
H          H       0.19986   0.01783   0.18908   0.12405
H          H       0.91993   0.95550   0.14006   0.12326
H          H       0.26172   0.33471   0.95436   0.13230
H          H       0.86773   0.94356   0.20596   0.11143
H          H       0.24052   0.45903   0.58870   0.27133
H          H       0.00745   0.37846   0.43671   0.27083
H          H       0.10677   0.60141   0.51428   0.11391
H          H       0.08874   0.46527   0.42402   0.12366
H          H       0.15883   0.41034   0.54264   0.12208
H          H       0.16469   0.64608   0.45692   0.27147
H          H       0.59741   0.39301   0.44290   0.27052
H          H       0.62148   0.67235   0.49394   0.28053
H          H       0.65650   0.48093   0.62082   0.28998
H          H       0.58075   0.61592   0.53383   0.11700
H          H       0.92262   0.32493   0.39075   0.12629
H          H       0.65380   0.48475   0.44828   0.10579
H          H       0.88932   0.22687   0.35489   0.11821
H          H       0.14605   0.58451   0.64746   0.12700
H          H       0.15490   0.57746   0.71957   0.12491
H          H       0.62462   0.42561   0.56507   0.12159
H          H       0.12846   0.14124   0.42165   0.12383
H          H       0.26195   0.40129   0.64297   0.12536
H          H       0.64313   0.49079   0.75526   0.12948
H          H       0.26999   0.39422   0.71494   0.12839
H          H       0.14473   0.84415   0.40988   0.12395
H          H       0.66398   0.77001   0.49471   0.12279
H          H       0.61397   0.67357   0.38606   0.12492
H          H       0.19919   0.74421   0.44023   0.12555
H          H       0.65794   0.76902   0.35131   0.12198
H          H       0.65210   0.25561   0.34877   0.13085
H          H       0.93248   0.65911   0.39419   0.12864
H          H       0.87964   0.75897   0.36383   0.11826
H          H       0.16563   0.24042   0.45650   0.12663
H          H       0.61488   0.34887   0.38619   0.13062
H          H       0.72352   0.25878   0.49223   0.12900
H          H       0.71178   0.86393   0.45931   0.12586
H          H       0.69929   0.48108   0.68910   0.12419
H          H       0.41986   0.54370   0.63967   0.12316
H          H       0.76157   0.16544   0.45435   0.13233
H          H       0.36750   0.55671   0.70546   0.11144
H          H       0.75922   0.54080   0.41131   0.27180
H          H       0.99270   0.62210   0.56349   0.27148
H          H       0.89334   0.39875   0.48588   0.11348
H          H       0.91159   0.53522   0.57593   0.12391
H          H       0.84135   0.58964   0.45719   0.12230
H          H       0.83504   0.35447   0.54301   0.27102
H          H       0.40229   0.60722   0.55714   0.27144
H          H       0.37581   0.32843   0.50602   0.28187
H          H       0.34400   0.51943   0.37926   0.28975
H          H       0.41863   0.38430   0.46610   0.11642
H          H       0.07723   0.67560   0.60931   0.12624
H          H       0.34657   0.51547   0.55171   0.10635
H          H       0.11021   0.77373   0.64511   0.11794
H          H       0.85394   0.41533   0.35244   0.12705
H          H       0.84502   0.42261   0.28034   0.12472
H          H       0.37529   0.57471   0.43489   0.12131
H          H       0.87091   0.85899   0.57801   0.12389
H          H       0.73800   0.59857   0.35709   0.12555
H          H       0.35635   0.50932   0.24477   0.13239
H          H       0.72997   0.60575   0.28512   0.12816
H          H       0.85376   0.15609   0.58946   0.12379
H          H       0.33584   0.23040   0.50575   0.12272
H          H       0.38635   0.32823   0.61380   0.12593
H          H       0.80012   0.25624   0.55934   0.12557
H          H       0.34379   0.23300   0.64923   0.12251
H          H       0.34746   0.74480   0.65121   0.13163
H          H       0.06692   0.34063   0.60585   0.12899
H          H       0.11916   0.24055   0.63601   0.11937
H          H       0.83427   0.75975   0.54330   0.12630
H          H       0.38474   0.65141   0.61389   0.13089
H          H       0.27623   0.74140   0.50775   0.12821
H          H       0.29132   0.13630   0.54178   0.12620
H          H       0.29985   0.51792   0.31096   0.12513
H          H       0.57982   0.45573   0.36018   0.12292
H          H       0.23816   0.83483   0.54558   0.13273
H          H       0.63215   0.44345   0.29433   0.11242
H          H       0.25804   0.95949   0.91131   0.27265
H          H       0.49245   0.87833   0.06391   0.27149
H          H       0.39242   0.10146   0.98561   0.11449
H          H       0.41200   0.96483   0.07578   0.12347
H          H       0.34125   0.91049   0.95715   0.12201
H          H       0.33423   0.14475   0.04378   0.27083
H          H       0.90333   0.89280   0.05687   0.27064
H          H       0.87632   0.17133   0.00608   0.28038
H          H       0.84349   0.98109   0.87905   0.28970
H          H       0.91820   0.11576   0.96572   0.11682
H          H       0.57754   0.82478   0.10944   0.12647
H          H       0.84755   0.98459   0.05168   0.10721
H          H       0.61080   0.72642   0.14514   0.11778
H          H       0.35369   0.08446   0.85234   0.12732
H          H       0.34521   0.07692   0.78023   0.12442
H          H       0.87520   0.92513   0.93493   0.12132
H          H       0.37132   0.64126   0.07825   0.12397
H          H       0.23762   0.90108   0.85725   0.12644
H          H       0.85662   0.99166   0.74453   0.13205
H          H       0.23005   0.89387   0.78524   0.12821
H          H       0.35211   0.34360   0.09002   0.12436
H          H       0.83632   0.26952   0.00571   0.12199
H          H       0.88792   0.17163   0.11372   0.12618
H          H       0.29961   0.24376   0.05935   0.12572
H          H       0.84336   0.26623   0.14912   0.12184
H          H       0.84731   0.75502   0.15126   0.13063
H          H       0.56721   0.16002   0.10554   0.12821
H          H       0.61829   0.25986   0.13623   0.12317
H          H       0.33429   0.74055   0.04349   0.12637
H          H       0.88507   0.84864   0.11400   0.13097
H          H       0.77679   0.75907   0.00782   0.12788
H          H       0.78871   0.36276   0.04152   0.12630
H          H       0.80021   0.98182   0.81071   0.12478
H          H       0.08021   0.04384   0.86015   0.12369
H          H       0.73829   0.66541   0.04561   0.13248
H          H       0.13241   0.05701   0.79431   0.11201
C          C       0.62748   0.06888   0.98242  -0.02684
C          C       0.61544   0.94577   0.00511  -0.12265
C          C       0.64403   0.97142   0.07460   0.48271
C          C       0.60437   0.02316   0.95480  -0.11871
C          C       0.63735   0.99142   0.03318  -0.03714
C          C       0.64456   0.05293   0.02169  -0.11322
C          C       0.59931   0.96132   0.96597  -0.02581
C          C       0.10057   0.93046   0.02535  -0.11231
C          C       0.56284   0.91566   0.93569   0.46487
C          C       0.12849   0.89822   0.95572   0.46409
C          C       0.46820   0.21529   0.89691  -0.20023
C          C       0.13940   0.00576   0.97813  -0.11120
C          C       0.12168   0.94425   0.98768  -0.02425
C          C       0.16791   0.11725   0.99736   0.46893
C          C       0.70354   0.00683   0.14077   0.26478
C          C       0.14246   0.05211   0.00606  -0.02874
C          C       0.96801   0.96717   0.27383   0.60222
C          C       0.57011   0.80397   0.92015   0.25210
C          C       0.54696   0.21105   0.92552   0.25561
C          C       0.71219   0.01521   0.22193  -0.06025
C          C       0.10040   0.97707   0.05342  -0.04142
C          C       0.63412   0.13521   0.97080   0.47369
C          C       0.13698   0.78566   0.94249   0.23628
C          C       0.47905   0.38144   0.86664   0.58976
C          C       0.72427   0.01596   0.26487   0.58467
C          C       0.44913   0.27015   0.87726  -0.08040
C          C       0.00283   0.97489   0.23480  -0.04736
C          C       0.67273   0.95700   0.16253  -0.18741
C          C       0.67704   0.96173   0.20271  -0.06971
C          C       0.12450   0.03745   0.04413  -0.11862
C          C       0.58453   0.31816   0.91484  -0.06963
C          C       0.51205   0.69235   0.88467  -0.05733
C          C       0.47763   0.63403   0.86624   0.60254
C          C       0.06228   0.96014   0.09078   0.47551
C          C       0.16731   0.19039   0.94146   0.25230
C          C       0.06379   0.98627   0.16036   0.23681
C          C       0.73859   0.06065   0.15987  -0.18482
C          C       0.09590   0.99713   0.22989  -0.07062
C          C       0.50637   0.32258   0.88622  -0.06038
C          C       0.74247   0.06487   0.19995  -0.07179
C          C       0.18866   0.67998   0.90261  -0.03885
C          C       0.20875   0.29563   0.89943  -0.05542
C          C       0.60198   0.69660   0.90660  -0.07671
C          C       0.16157   0.73093   0.96283  -0.18408
C          C       0.13315   0.78638   0.90186  -0.19239
C          C       0.63109   0.75202   0.92398  -0.19948
C          C       0.15842   0.73342   0.88233  -0.08229
C          C       0.16742   0.24378   0.88009  -0.07104
C          C       0.48006   0.79997   0.89807  -0.18795
C          C       0.45211   0.74450   0.88056  -0.07105
C          C       0.60573   0.26298   0.93434  -0.18962
C          C       0.23262   0.34924   0.87661   0.51988
C          C       0.14704   0.19154   0.90084  -0.18597
C          C       0.20866   0.24219   0.96098  -0.18733
C          C       0.18811   0.67892   0.94310  -0.07950
C          C       0.12674   0.00219   0.19286  -0.20093
C          C       0.96946   0.96609   0.16509  -0.17860
C          C       0.22998   0.62610   0.88286   0.55592
C          C       0.22939   0.29433   0.93981  -0.06516
C          C       0.94031   0.95970   0.20211  -0.07294
C          C       0.12810   0.43088   0.48215  -0.02785
C          C       0.11423   0.55403   0.50478  -0.12510
C          C       0.14315   0.52840   0.57441   0.47977
C          C       0.10469   0.47664   0.45451  -0.11993
C          C       0.13635   0.50840   0.53292  -0.03388
C          C       0.14428   0.44690   0.52142  -0.11403
C          C       0.09853   0.53844   0.46563  -0.02315
C          C       0.60025   0.56983   0.52502  -0.11246
C          C       0.06223   0.58413   0.43528   0.46174
C          C       0.63108   0.60302   0.45584   0.46629
C          C       0.96825   0.28481   0.39697  -0.19923
C          C       0.63969   0.49477   0.47794  -0.10891
C          C       0.62218   0.55637   0.48740  -0.02599
C          C       0.66790   0.38309   0.49725   0.46614
C          C       0.20262   0.49308   0.64067   0.26723
C          C       0.64215   0.44825   0.50587  -0.02895
C          C       0.46855   0.53393   0.77359   0.60360
C          C       0.06838   0.69585   0.41982   0.25299
C          C       0.04686   0.28895   0.42558   0.25554
C          C       0.21210   0.48545   0.72197  -0.05997
C          C       0.60032   0.52319   0.55316  -0.04252
C          C       0.13487   0.36455   0.47050   0.47160
C          C       0.63783   0.71545   0.44268   0.23608
C          C       0.97867   0.11889   0.36668   0.58999
C          C       0.22432   0.48501   0.76494   0.58165
C          C       0.94925   0.23007   0.37725  -0.07716
C          C       0.50291   0.52606   0.73450  -0.04703
C          C       0.17221   0.54307   0.66231  -0.18764
C          C       0.17693   0.53878   0.70252  -0.06889
C          C       0.62427   0.46280   0.54395  -0.11669
C          C       0.08450   0.18190   0.41478  -0.06962
C          C       0.00841   0.80773   0.38507  -0.05974
C          C       0.97341   0.86609   0.36680   0.60471
C          C       0.56257   0.53993   0.59064   0.47664
C          C       0.66739   0.30976   0.44154   0.25234
C          C       0.56383   0.51346   0.66019   0.23763
C          C       0.23798   0.43949   0.66001  -0.18501
C          C       0.59564   0.50317   0.72974  -0.06988
C          C       0.00641   0.17763   0.38618  -0.06007
C          C       0.24226   0.43559   0.70014  -0.07144
C          C       0.68865   0.82173   0.40323  -0.03675
C          C       0.70865   0.20463   0.39940  -0.05548
C          C       0.09873   0.80361   0.40675  -0.07459
C          C       0.66261   0.76986   0.46326  -0.18540
C          C       0.63458   0.71507   0.40205  -0.18937
C          C       0.12885   0.74805   0.42374  -0.19988
C          C       0.65935   0.76839   0.38273  -0.08404
C          C       0.66718   0.25653   0.38011  -0.07154
C          C       0.97821   0.69955   0.39778  -0.19050
C          C       0.94936   0.75520   0.38069  -0.06500
C          C       0.10560   0.23700   0.43432  -0.18994
C          C       0.73248   0.15102   0.37662   0.52204
C          C       0.64705   0.30866   0.40094  -0.18539
C          C       0.70870   0.25789   0.46100  -0.18803
C          C       0.68884   0.82221   0.44373  -0.07945
C          C       0.62651   0.49743   0.69276  -0.20064
C          C       0.46945   0.53364   0.66478  -0.17678
C          C       0.72797   0.87627   0.38350   0.55846
C          C       0.72926   0.20583   0.43978  -0.06545
C          C       0.44019   0.54064   0.70174  -0.07493
C          C       0.87262   0.56919   0.51775  -0.02730
C          C       0.88598   0.44616   0.49528  -0.12499
C          C       0.85681   0.47153   0.42559   0.47993
C          C       0.89588   0.52357   0.54547  -0.11982
C          C       0.86379   0.49165   0.46706  -0.03529
C          C       0.85612   0.55318   0.47848  -0.11259
C          C       0.90178   0.46177   0.53443  -0.02393
C          C       0.39954   0.43048   0.47489  -0.11185
C          C       0.93773   0.41608   0.56481   0.46108
C          C       0.37026   0.39800   0.54433   0.46134
C          C       0.03148   0.71564   0.60301  -0.19966
C          C       0.36038   0.50564   0.52199  -0.10944
C          C       0.37796   0.44412   0.51249  -0.02493
C          C       0.33177   0.61713   0.50277   0.46870
C          C       0.79725   0.50676   0.35932   0.26456
C          C       0.35765   0.55208   0.49408  -0.02925
C          C       0.53154   0.46757   0.22641   0.59962
C          C       0.93096   0.30432   0.58005   0.25230
C          C       0.95300   0.71144   0.57433   0.25618
C          C       0.78786   0.51457   0.27802  -0.06010
C          C       0.39976   0.47714   0.44679  -0.04277
C          C       0.86543   0.63547   0.52946   0.47203
C          C       0.36244   0.28549   0.55754   0.23739
C          C       0.02096   0.88152   0.63325   0.59021
C          C       0.77564   0.51498   0.23505   0.58214
C          C       0.05035   0.77041   0.62271  -0.07597
C          C       0.49701   0.47491   0.26548  -0.04440
C          C       0.82770   0.45680   0.33765  -0.18685
C          C       0.82300   0.46123   0.29744  -0.06927
C          C       0.37568   0.53751   0.45600  -0.11836
C          C       0.91513   0.81847   0.58501  -0.06962
C          C       0.98995   0.19214   0.61471  -0.05800
C          C       0.02459   0.13380   0.63317   0.60276
C          C       0.43764   0.46029   0.40937   0.47646
C          C       0.33232   0.69049   0.55849   0.25230
C          C       0.43602   0.48645   0.33979   0.23675
C          C       0.76190   0.56038   0.34001  -0.18326
C          C       0.40394   0.49711   0.27029  -0.07306
C          C       0.99319   0.82283   0.61366  -0.06081
C          C       0.75769   0.56436   0.29989  -0.07229
C          C       0.31358   0.17917   0.59761  -0.03785
C          C       0.29102   0.79571   0.60056  -0.05343
C          C       0.89996   0.19652   0.59282  -0.07533
C          C       0.33817   0.23077   0.53724  -0.18632
C          C       0.36622   0.28627   0.59818  -0.19305
C          C       0.87035   0.25222   0.57589  -0.20098
C          C       0.34219   0.23302   0.61780  -0.08295
C          C       0.33247   0.74381   0.61986  -0.07261
C          C       0.02104   0.30028   0.60213  -0.18972
C          C       0.04943   0.24451   0.61917  -0.06673
C          C       0.89421   0.76331   0.56551  -0.18962
C          C       0.26705   0.84927   0.62339   0.51897
C          C       0.35263   0.69162   0.59909  -0.18530
C          C       0.29105   0.74235   0.53899  -0.18804
C          C       0.31345   0.17840   0.55710  -0.07935
C          C       0.37297   0.50224   0.30727  -0.20143
C          C       0.53032   0.46620   0.33512  -0.17662
C          C       0.27500   0.12419   0.61736   0.55671
C          C       0.27049   0.79446   0.56017  -0.06627
C          C       0.55959   0.45965   0.29814  -0.07632
C          C       0.37285   0.93100   0.01763  -0.02628
C          C       0.38548   0.05405   0.99513  -0.12442
C          C       0.35620   0.02852   0.92556   0.48215
C          C       0.39627   0.97655   0.04533  -0.11955
C          C       0.36311   0.00853   0.96699  -0.03528
C          C       0.35577   0.94699   0.97839  -0.11308
C          C       0.40204   0.03840   0.03427  -0.02497
C          C       0.89961   0.06950   0.97463  -0.11096
C          C       0.43937   0.08402   0.06450   0.46248
C          C       0.87185   0.10172   0.04429   0.46338
C          C       0.53179   0.78470   0.10313  -0.19875
C          C       0.86090   0.99423   0.02187  -0.11086
C          C       0.87858   0.05572   0.01231  -0.02553
C          C       0.83218   0.88280   0.00267   0.46868
C          C       0.29667   0.99310   0.85934   0.26430
C          C       0.85766   0.94789   0.99394  -0.02888
C          C       0.03184   0.03372   0.72634   0.60307
C          C       0.43055   0.19572   0.08018   0.25191
C          C       0.45307   0.78891   0.07451   0.25383
C          C       0.28797   0.98490   0.77813  -0.06088
C          C       0.89962   0.02287   0.94656  -0.04249
C          C       0.36607   0.86467   0.02907   0.47112
C          C       0.86325   0.21425   0.05751   0.23621
C          C       0.52130   0.61860   0.13327   0.58907
C          C       0.27599   0.98407   0.73519   0.58639
C          C       0.55082   0.72985   0.12280  -0.07719
C          C       0.99716   0.02603   0.76536  -0.04742
C          C       0.32736   0.04298   0.83759  -0.18668
C          C       0.32305   0.03837   0.79740  -0.06896
C          C       0.87549   0.96251   0.95585  -0.11818
C          C       0.41545   0.68182   0.08520  -0.06932
C          C       0.48836   0.30781   0.11531  -0.05772
C          C       0.52243   0.36605   0.13402   0.60283
C          C       0.93766   0.03976   0.90920   0.47572
C          C       0.83273   0.80969   0.05856   0.25256
C          C       0.93609   0.01376   0.83964   0.23730
C          C       0.26148   0.93934   0.84017  -0.18446
C          C       0.90413   0.00365   0.77011  -0.07246
C          C       0.49364   0.67744   0.11380  -0.05990
C          C       0.25761   0.93521   0.80007  -0.07217
C          C       0.81150   0.32000   0.09746  -0.03919
C          C       0.79122   0.70440   0.10058  -0.05509
C          C       0.39853   0.30326   0.09333  -0.07578
C          C       0.83823   0.26889   0.03718  -0.18365
C          C       0.86697   0.21349   0.09813  -0.19201
C          C       0.36954   0.24766   0.07612  -0.20073
C          C       0.84165   0.26644   0.11769  -0.08245
C          C       0.83256   0.75625   0.11992  -0.07113
C          C       0.52068   0.20008   0.10216  -0.18884
C          C       0.54848   0.25573   0.11947  -0.07079
C          C       0.39434   0.73699   0.06568  -0.18936
C          C       0.76745   0.65071   0.12336   0.51970
C          C       0.85293   0.80850   0.09917  -0.18579
C          C       0.79137   0.75791   0.03906  -0.18731
C          C       0.81182   0.32092   0.05695  -0.07977
C          C       0.87313   0.99804   0.80708  -0.20100
C          C       0.03051   0.03395   0.83504  -0.17750
C          C       0.77078   0.37426   0.11716   0.55546
C          C       0.77063   0.70576   0.06021  -0.06559
C          C       0.05979   0.04083   0.79809  -0.07461
N          N       0.70141   0.00641   0.10012  -0.36190
N          N       0.56109   0.15350   0.94381  -0.36389
N          N       0.60121   0.85754   0.94026  -0.37421
N          N       0.14349   0.13548   0.96006  -0.36070
N          N       0.11748   0.83772   0.96502  -0.34781
N          N       0.09695   0.99208   0.12308  -0.35031
N          N       0.20001   0.49311   0.59998  -0.36281
N          N       0.06106   0.34636   0.44396  -0.36091
N          N       0.10005   0.64236   0.43992  -0.37083
N          N       0.64356   0.36474   0.46000  -0.36038
N          N       0.61742   0.66328   0.46507  -0.34985
N          N       0.59707   0.50770   0.62293  -0.35170
N          N       0.79980   0.50669   0.40001  -0.36305
N          N       0.93915   0.65400   0.55598  -0.36362
N          N       0.89964   0.35797   0.56007  -0.37071
N          N       0.35611   0.63549   0.54004  -0.36136
N          N       0.38166   0.33757   0.53494  -0.34830
N          N       0.40309   0.49240   0.37708  -0.35113
N          N       0.29910   0.99336   0.90001  -0.36319
N          N       0.43890   0.84640   0.05619  -0.36275
N          N       0.39947   0.14177   0.06044  -0.37053
N          N       0.85645   0.86465   0.03999  -0.36089
N          N       0.88275   0.16222   0.03496  -0.34828
N          N       0.90317   0.00765   0.87692  -0.34972
O          O       0.59952   0.92467   0.08416  -0.49006
O          O       0.49981   0.93123   0.90993  -0.46392
O          O       0.14393   0.91590   0.92255  -0.49232
O          O       0.33992   0.49759   0.84561  -0.87649
O          O      -0.00013   0.91897   0.09162  -0.47526
O          O       0.70070   0.16863   0.98491  -0.48868
O          O       0.75779   0.06586   0.28134  -0.49470
O          O       0.52266   0.58359   0.87674  -0.55209
O          O       0.01879   0.99169   0.30281  -0.55366
O          O       0.20950   0.15039   0.02316  -0.48713
O          O       0.70399   0.96745   0.28337  -0.55390
O          O       0.51917   0.43168   0.88059  -0.53535
O          O       0.40485   0.63723   0.84120  -0.57646
O          O       0.41637   0.38061   0.83730  -0.56424
O          O       0.88994   0.93691   0.27571  -0.56571
O          O       0.28009   0.39620   0.89061  -0.45465
O          O       0.21008   0.35085   0.83935  -0.48774
O          O       0.21409   0.62481   0.84464  -0.56803
O          O       0.27927   0.58736   0.90214  -0.48513
O          O       0.09938   0.57529   0.58408  -0.48827
O          O      -0.00018   0.56860   0.40919  -0.46310
O          O       0.65075   0.58626   0.42305  -0.48932
O          O       0.83886   0.00267   0.34540  -0.87662
O          O       0.50025   0.58109   0.59159  -0.47565
O          O       0.20213   0.33106   0.48417  -0.48926
O          O       0.25740   0.43483   0.78137  -0.49546
O          O       0.01897   0.91641   0.37695  -0.55300
O          O       0.51983   0.50972   0.80258  -0.55422
O          O       0.70967   0.34994   0.52302  -0.48589
O          O       0.20472   0.53371   0.78336  -0.55223
O          O       0.01888   0.06856   0.38056  -0.53660
O          O       0.89999   0.86292   0.34199  -0.57755
O          O       0.91537   0.12007   0.33756  -0.56216
O          O       0.39013   0.56368   0.77560  -0.56135
O          O       0.77994   0.10400   0.39058  -0.45533
O          O       0.70972   0.14949   0.33938  -0.48796
O          O       0.70957   0.87822   0.34538  -0.57015
O          O       0.77761   0.91506   0.40255  -0.48437
O          O       0.90072   0.42464   0.41595  -0.48870
O          O       0.00001   0.43145   0.59101  -0.46282
O          O       0.35363   0.41579   0.57732  -0.48916
O          O       0.16092   0.99773   0.65563  -0.87968
O          O       0.49989   0.41906   0.40843  -0.47614
O          O       0.79800   0.66869   0.51592  -0.48711
O          O       0.74255   0.56510   0.21857  -0.49470
O          O       0.98028   0.08315   0.62268  -0.55475
O          O       0.48097   0.49285   0.19760  -0.55128
O          O       0.28995   0.65021   0.47698  -0.48763
O          O       0.79531   0.46620   0.21670  -0.55271
O          O       0.98116   0.93196   0.61940  -0.53682
O          O       0.09670   0.13709   0.65846  -0.57666
O          O       0.08395   0.88032   0.66247  -0.56297
O          O       0.60932   0.43713   0.22433  -0.56252
O          O       0.21970   0.89636   0.60949  -0.45466
O          O       0.28980   0.85067   0.66064  -0.48707
O          O       0.28666   0.12490   0.65576  -0.56929
O          O       0.23228   0.08271   0.59807  -0.48752
O          O       0.40049   0.07531   0.91592  -0.48942
O          O       0.50410   0.06879   0.08975  -0.46177
O          O       0.85685   0.08405   0.07750  -0.49137
O          O       0.66043   0.50222   0.15445  -0.87698
O          O      -0.00002   0.08100   0.90837  -0.47583
O          O       0.29961   0.83144   0.01461  -0.48723
O          O       0.24229   0.93417   0.71877  -0.49405
O          O       0.47665   0.41653   0.12435  -0.55380
O          O       0.98077   0.00951   0.69733  -0.55300
O          O       0.79072   0.84960   0.97688  -0.48693
O          O       0.29650   0.03251   0.71664  -0.55514
O          O       0.48098   0.56839   0.11935  -0.53495
O          O       0.59575   0.36270   0.15876  -0.57547
O          O       0.58447   0.61939   0.16245  -0.56264
O          O       0.11040   0.06348   0.72448  -0.56315
O          O       0.72026   0.60367   0.10933  -0.45491
O          O       0.78991   0.64910   0.16063  -0.48721
O          O       0.78600   0.37515   0.15542  -0.56781
O          O       0.72298   0.41367   0.09790  -0.48492

