data_crystal

_audit_creation_method 'AiiDA-DDEC plugin'

_cell_length_a        17.52781
_cell_length_b        21.40026
_cell_length_c        21.40153

_cell_angle_alpha     80.23581
_cell_angle_beta     65.60966
_cell_angle_gamma     65.55764

_symmetry_space_group_name_Hall 'P 1'
_symmetry_space_group_name_H-M  'P 1'

loop_
_symmetry_equiv_pos_as_xyz
 'x,y,z'

loop_
_atom_site_label
_atom_site_type_symbol
_atom_site_fract_x
_atom_site_fract_y
_atom_site_fract_z
_atom_site_charge
Zn         Zn      0.32167   0.03761   0.27264   0.76042
Zn         Zn      0.63242   0.46160   0.22824   0.76039
Zn         Zn      0.85957   0.27271   0.46170   0.76169
Zn         Zn      0.59446   0.22798   0.03808   0.76037
Zn         Zn      0.67833   0.96238   0.72736   0.76053
Zn         Zn      0.36757   0.53839   0.77176   0.76062
Zn         Zn      0.14042   0.72729   0.53830   0.76172
Zn         Zn      0.40554   0.77202   0.96191   0.76057
H          H       0.07662   0.99654   0.29268   0.11784
H          H       0.98243   0.96330   0.25084   0.13258
H          H       0.17222   0.95932   0.04389   0.12654
H          H       0.26401   0.99389   0.08556   0.12167
H          H       0.99295   0.07570   0.10793   0.11748
H          H       0.86808   0.16356   0.07641   0.10344
H          H       0.77449   0.00930   0.07083   0.11440
H          H       0.90348   0.91889   0.09819   0.13658
H          H       0.17449   0.16015   0.35082   0.10699
H          H       0.10229   0.28513   0.33577   0.12781
H          H       0.30526   0.26001   0.12824   0.11806
H          H       0.36719   0.13534   0.15212   0.10679
H          H       0.01848   0.37187   0.28255   0.11550
H          H       0.95603   0.49612   0.25656   0.09294
H          H       0.20959   0.49165   0.12466   0.08380
H          H       0.28410   0.36816   0.14693   0.11980
H          H       0.32601   0.92122   0.36082   0.10044
H          H       0.39230   0.79387   0.36008   0.11810
H          H       0.55476   0.80407   0.14452   0.12267
H          H       0.47765   0.93172   0.15447   0.10888
H          H       0.36807   0.50240   0.20847   0.11859
H          H       0.19830   0.53507   0.24977   0.13035
H          H       0.17376   0.54011   0.45688   0.12563
H          H       0.34307   0.50595   0.41557   0.12053
H          H       0.17672   0.42237   0.39295   0.11719
H          H       0.10709   0.33555   0.42448   0.10403
H          H       0.85357   0.49155   0.42824   0.11468
H          H       0.92083   0.58076   0.40104   0.13631
H          H       0.68539   0.34064   0.15013   0.10654
H          H       0.72294   0.21565   0.16449   0.12891
H          H       0.69339   0.23903   0.37193   0.11762
H          H       0.65510   0.36370   0.34839   0.10740
H          H       0.67335   0.12902   0.21740   0.11479
H          H       0.70924   0.00479   0.24315   0.09145
H          H       0.82553   0.00789   0.37540   0.08424
H          H       0.79905   0.13117   0.35314   0.11977
H          H       0.60802   0.57782   0.13977   0.10118
H          H       0.54617   0.70524   0.14041   0.11757
H          H       0.50387   0.69468   0.35550   0.12273
H          H       0.56455   0.56707   0.34570   0.10885
H          H       0.57358   0.29304   0.50285   0.11807
H          H       0.44599   0.25132   0.53590   0.12990
H          H       0.63209   0.04414   0.53974   0.12718
H          H       0.75884   0.08601   0.50487   0.12177
H          H       0.56916   0.10764   0.42255   0.11682
H          H       0.53113   0.07625   0.33577   0.10451
H          H       0.28248   0.07137   0.49189   0.11432
H          H       0.32206   0.09884   0.58105   0.13639
H          H       0.83617   0.35067   0.34025   0.10630
H          H       0.88719   0.33575   0.21557   0.12752
H          H       0.06542   0.12757   0.23894   0.11723
H          H       0.00389   0.15154   0.36348   0.10724
H          H       0.89039   0.28277   0.12875   0.11491
H          H       0.95233   0.25676   0.00459   0.09282
H          H       0.20208   0.12419   0.00759   0.08382
H          H       0.15298   0.14647   0.13093   0.12032
H          H       0.74597   0.36048   0.57888   0.09992
H          H       0.68576   0.36023   0.70603   0.11774
H          H       0.85856   0.14460   0.69541   0.12261
H          H       0.90882   0.15386   0.56795   0.10885
H          H       0.37218   0.20714   0.99707   0.11850
H          H       0.23610   0.24722   0.96354   0.13267
H          H       0.21362   0.45514   0.95915   0.12688
H          H       0.34694   0.41529   0.99451   0.12194
H          H       0.10090   0.39136   0.07544   0.11612
H          H       0.94415   0.42292   0.16327   0.10439
H          H       0.84509   0.42832   0.00890   0.11447
H          H       0.00205   0.40064   0.91858   0.13681
H          H       0.52631   0.14947   0.15981   0.10660
H          H       0.43844   0.16432   0.28482   0.12781
H          H       0.43296   0.37154   0.26105   0.11742
H          H       0.51922   0.34783   0.13631   0.10760
H          H       0.30150   0.21748   0.37180   0.11611
H          H       0.21262   0.24372   0.49602   0.09270
H          H       0.33287   0.37567   0.49190   0.08350
H          H       0.43015   0.35298   0.36852   0.12028
H          H       0.68562   0.14053   0.92207   0.10039
H          H       0.75126   0.14073   0.79480   0.11779
H          H       0.69793   0.35607   0.80479   0.12267
H          H       0.63123   0.34661   0.93240   0.10735
H          H       0.92338   0.00346   0.70731   0.11804
H          H       0.01756   0.03669   0.74915   0.13248
H          H       0.82777   0.04067   0.95611   0.12627
H          H       0.73598   0.00611   0.91444   0.12176
H          H       0.00704   0.92430   0.89206   0.11783
H          H       0.13191   0.83643   0.92359   0.10361
H          H       0.22551   0.99069   0.92917   0.11415
H          H       0.09652   0.08111   0.90181   0.13640
H          H       0.82551   0.83984   0.64918   0.10702
H          H       0.89771   0.71487   0.66423   0.12796
H          H       0.69473   0.73999   0.87176   0.11803
H          H       0.63281   0.86466   0.84788   0.10664
H          H       0.98152   0.62813   0.71745   0.11536
H          H       0.04397   0.50388   0.74344   0.09291
H          H       0.79041   0.50835   0.87534   0.08397
H          H       0.71590   0.63184   0.85307   0.11985
H          H       0.67398   0.07878   0.63918   0.10058
H          H       0.60770   0.20613   0.63992   0.11811
H          H       0.44523   0.19592   0.85547   0.12259
H          H       0.52235   0.06827   0.84552   0.10887
H          H       0.63193   0.49759   0.79152   0.11848
H          H       0.80169   0.46493   0.75023   0.13040
H          H       0.82624   0.45988   0.54312   0.12579
H          H       0.65692   0.49405   0.58442   0.12088
H          H       0.82328   0.57762   0.60704   0.11738
H          H       0.89291   0.66445   0.57551   0.10407
H          H       0.14643   0.50845   0.57175   0.11443
H          H       0.07916   0.41924   0.59896   0.13641
H          H       0.31461   0.65936   0.84986   0.10639
H          H       0.27706   0.78434   0.83551   0.12854
H          H       0.30661   0.76097   0.62806   0.11779
H          H       0.34490   0.63629   0.65160   0.10768
H          H       0.32664   0.87097   0.78260   0.11466
H          H       0.29076   0.99520   0.75685   0.09110
H          H       0.17447   0.99211   0.62459   0.08445
H          H       0.20095   0.86883   0.64686   0.12010
H          H       0.39197   0.42217   0.86023   0.10093
H          H       0.45383   0.29475   0.85959   0.11745
H          H       0.49612   0.30532   0.64450   0.12293
H          H       0.43545   0.43292   0.65429   0.10899
H          H       0.42642   0.70695   0.49715   0.11829
H          H       0.55401   0.74868   0.46410   0.12979
H          H       0.36790   0.95586   0.46026   0.12700
H          H       0.24116   0.91398   0.49513   0.12187
H          H       0.43083   0.89236   0.57744   0.11707
H          H       0.46887   0.92375   0.66422   0.10436
H          H       0.71752   0.92863   0.50811   0.11410
H          H       0.67794   0.90116   0.41894   0.13650
H          H       0.16382   0.64932   0.65975   0.10656
H          H       0.11281   0.66425   0.78443   0.12743
H          H       0.93457   0.87243   0.76106   0.11716
H          H       0.99611   0.84846   0.63651   0.10731
H          H       0.10961   0.71723   0.87124   0.11489
H          H       0.04767   0.74324   0.99541   0.09253
H          H       0.79791   0.87581   0.99241   0.08381
H          H       0.84702   0.85353   0.86906   0.12059
H          H       0.25403   0.63952   0.42112   0.09992
H          H       0.31424   0.63976   0.29396   0.11785
H          H       0.14144   0.85539   0.30459   0.12263
H          H       0.09118   0.84614   0.43205   0.10862
H          H       0.62781   0.79286   0.00292   0.11840
H          H       0.76390   0.75278   0.03645   0.13248
H          H       0.78638   0.54485   0.04085   0.12686
H          H       0.65305   0.58470   0.00549   0.12232
H          H       0.89910   0.60864   0.92456   0.11645
H          H       0.05585   0.57708   0.83673   0.10466
H          H       0.15491   0.57167   0.99110   0.11417
H          H       0.99794   0.59936   0.08142   0.13664
H          H       0.47369   0.85052   0.84019   0.10638
H          H       0.56156   0.83567   0.71517   0.12773
H          H       0.56704   0.62846   0.73895   0.11764
H          H       0.48078   0.65217   0.86369   0.10763
H          H       0.69850   0.78252   0.62819   0.11572
H          H       0.78738   0.75628   0.50398   0.09252
H          H       0.66712   0.62433   0.50810   0.08380
H          H       0.56985   0.64702   0.63148   0.12050
H          H       0.31437   0.85946   0.07792   0.10025
H          H       0.24874   0.85927   0.20519   0.11744
H          H       0.30207   0.64393   0.19521   0.12281
H          H       0.36876   0.65338   0.06759   0.10771
C          C       0.23220   0.01600   0.21544   0.53764
C          C       0.17536   0.99734   0.19141  -0.06162
C          C       0.09624   0.98843   0.23848  -0.09423
C          C       0.04451   0.96986   0.21574  -0.20355
C          C       0.07295   0.95989   0.14555   0.25943
C          C       0.15143   0.96820   0.09802  -0.19061
C          C       0.20214   0.98734   0.12124  -0.08526
C          C       0.95452   0.99219   0.10582   0.27428
C          C       0.94562   0.06087   0.09963  -0.22629
C          C       0.87535   0.11015   0.08233  -0.06587
C          C       0.81294   0.09216   0.07226  -0.07919
C          C       0.82351   0.02287   0.07826  -0.08374
C          C       0.89437   0.97266   0.09413  -0.20291
C          C       0.73619   0.14594   0.05678   0.54358
C          C       0.20071   0.18455   0.30216   0.08524
C          C       0.16086   0.25484   0.29302  -0.17394
C          C       0.19771   0.28441   0.22978   0.10941
C          C       0.27418   0.24046   0.17855  -0.17516
C          C       0.30922   0.17060   0.19142   0.09252
C          C       0.15734   0.35864   0.21675   0.09222
C          C       0.06376   0.39647   0.24788  -0.17376
C          C       0.02859   0.46616   0.23283   0.09202
C          C       0.16897   0.46369   0.15992   0.07962
C          C       0.21087   0.39402   0.17185  -0.18410
C          C       0.37704   0.89298   0.31419   0.09579
C          C       0.41488   0.82171   0.31322  -0.17109
C          C       0.47997   0.78733   0.25176   0.10218
C          C       0.50389   0.82771   0.19352  -0.17155
C          C       0.46256   0.89888   0.19875   0.09675
C          C       0.46472   0.48256   0.28563   0.53460
C          C       0.36483   0.50178   0.30983  -0.05546
C          C       0.32450   0.51055   0.26259  -0.09866
C          C       0.23117   0.52883   0.28508  -0.20079
C          C       0.17866   0.53871   0.35528   0.26209
C          C       0.21723   0.53107   0.40289  -0.19377
C          C       0.31061   0.51221   0.37991  -0.08260
C          C       0.05247   0.50659   0.39456   0.27437
C          C       0.10601   0.43777   0.40095  -0.22557
C          C       0.06712   0.38907   0.41821  -0.06693
C          C       0.97638   0.40776   0.42773  -0.07979
C          C       0.92384   0.47720   0.42126  -0.08160
C          C       0.96092   0.52680   0.40554  -0.20478
C          C       0.93771   0.35437   0.44327   0.54262
C          C       0.68762   0.31564   0.19848   0.08680
C          C       0.70877   0.24544   0.20730  -0.17704
C          C       0.71205   0.21550   0.27035   0.10990
C          C       0.69334   0.25891   0.32172  -0.17533
C          C       0.67165   0.32870   0.30911   0.09121
C          C       0.73294   0.14137   0.28324   0.09146
C          C       0.70846   0.10404   0.25203  -0.17332
C          C       0.72792   0.03442   0.26698   0.09425
C          C       0.79247   0.03611   0.34007   0.07541
C          C       0.77676   0.10566   0.32815  -0.18221
C          C       0.58434   0.60603   0.18624   0.09615
C          C       0.54999   0.67729   0.18714  -0.17056
C          C       0.51951   0.71155   0.24843   0.10292
C          C       0.52565   0.67111   0.30662  -0.17225
C          C       0.56070   0.59997   0.30148   0.09631
C          C       0.74938   0.21544   0.48170   0.53633
C          C       0.67346   0.19165   0.50127  -0.05853
C          C       0.58517   0.23881   0.51068  -0.09599
C          C       0.51477   0.21608   0.52910  -0.19991
C          C       0.53337   0.14582   0.53865   0.25949
C          C       0.62025   0.09825   0.53062  -0.19244
C          C       0.69021   0.12151   0.51148  -0.08556
C          C       0.44674   0.10611   0.50686   0.27376
C          C       0.50654   0.09963   0.43800  -0.22248
C          C       0.48503   0.08225   0.38934  -0.07085
C          C       0.40419   0.07233   0.40803  -0.07549
C          C       0.34551   0.07859   0.47752  -0.08394
C          C       0.36663   0.09461   0.52712  -0.20408
C          C       0.38110   0.05679   0.35458   0.54100
C          C       0.88653   0.30199   0.31540   0.08695
C          C       0.91615   0.29288   0.24527  -0.17422
C          C       0.98247   0.22952   0.21535   0.10854
C          C       0.01522   0.17806   0.25877  -0.17604
C          C       0.98109   0.19093   0.32852   0.09303
C          C       0.01631   0.21654   0.14120   0.09383
C          C       0.96041   0.24790   0.10384  -0.17329
C          C       0.99504   0.23284   0.03420   0.09232
C          C       0.13333   0.15956   0.03584   0.07728
C          C       0.10548   0.17150   0.10543  -0.18467
C          C       0.76907   0.31386   0.60686   0.09622
C          C       0.73606   0.31322   0.67808  -0.17177
C          C       0.76692   0.25191   0.71236   0.10320
C          C       0.83118   0.19349   0.67184  -0.17245
C          C       0.86072   0.19838   0.60071   0.09615
C          C       0.44733   0.28538   0.01699   0.53712
C          C       0.36668   0.30895   0.99800  -0.05994
C          C       0.33627   0.26115   0.98888  -0.09658
C          C       0.26190   0.28294   0.97007  -0.20286
C          C       0.21887   0.35300   0.95996   0.26061
C          C       0.24839   0.40122   0.96823  -0.19274
C          C       0.32208   0.37897   0.98776  -0.08411
C          C       0.06045   0.39279   0.99205   0.27260
C          C       0.04524   0.39939   0.06067  -0.22364
C          C       0.95745   0.41701   0.10983  -0.06838
C          C       0.88494   0.42705   0.09180  -0.07812
C          C       0.90159   0.42091   0.02250  -0.08283
C          C       0.98856   0.40466   0.97241  -0.20362
C          C       0.79265   0.44237   0.14560   0.54006
C          C       0.50341   0.19800   0.18457   0.08769
C          C       0.45420   0.20702   0.25485  -0.17530
C          C       0.42748   0.27014   0.28470   0.10987
C          C       0.45252   0.32135   0.24118  -0.17463
C          C       0.50060   0.30860   0.17133   0.09145
C          C       0.37389   0.28320   0.35887   0.09252
C          C       0.31172   0.25217   0.39651  -0.17318
C          C       0.26128   0.26735   0.46616   0.09393
C          C       0.32797   0.34028   0.46391   0.07882
C          C       0.38205   0.32815   0.39432  -0.18591
C          C       0.69017   0.18695   0.89379   0.09631
C          C       0.72700   0.18764   0.82256  -0.17134
C          C       0.73071   0.24886   0.78813   0.10282
C          C       0.69626   0.30720   0.82847  -0.17187
C          C       0.66034   0.30225   0.89962   0.09778
C          C       0.76779   0.98399   0.78456   0.53735
C          C       0.82463   0.00266   0.80858  -0.06190
C          C       0.90376   0.01157   0.76152  -0.09382
C          C       0.95549   0.03014   0.78426  -0.20379
C          C       0.92704   0.04011   0.85444   0.25963
C          C       0.84857   0.03180   0.90198  -0.19083
C          C       0.79786   0.01265   0.87876  -0.08500
C          C       0.04548   0.00781   0.89418   0.27439
C          C       0.05438   0.93913   0.90036  -0.22623
C          C       0.12465   0.88984   0.91767  -0.06564
C          C       0.18706   0.90783   0.92773  -0.07935
C          C       0.17649   0.97712   0.92173  -0.08415
C          C       0.10563   0.02733   0.90587  -0.20286
C          C       0.26381   0.85405   0.94322   0.54390
C          C       0.79929   0.81545   0.69784   0.08559
C          C       0.83913   0.74515   0.70697  -0.17412
C          C       0.80229   0.71559   0.77022   0.10951
C          C       0.72581   0.75953   0.82145  -0.17527
C          C       0.69078   0.82940   0.80858   0.09263
C          C       0.84266   0.64135   0.78325   0.09205
C          C       0.93624   0.60353   0.75212  -0.17380
C          C       0.97141   0.53384   0.76717   0.09190
C          C       0.83103   0.53630   0.84008   0.07964
C          C       0.78913   0.60597   0.82814  -0.18396
C          C       0.62295   0.10702   0.68580   0.09592
C          C       0.58512   0.17829   0.68678  -0.17110
C          C       0.52002   0.21267   0.74823   0.10210
C          C       0.49611   0.17229   0.80648  -0.17170
C          C       0.53743   0.10112   0.80124   0.09678
C          C       0.53528   0.51744   0.71436   0.53446
C          C       0.63517   0.49821   0.69017  -0.05532
C          C       0.67550   0.48944   0.73741  -0.09889
C          C       0.76883   0.47117   0.71491  -0.20149
C          C       0.82134   0.46128   0.64472   0.26207
C          C       0.78276   0.46892   0.59711  -0.19377
C          C       0.68939   0.48779   0.62008  -0.08245
C          C       0.94752   0.49340   0.60544   0.27433
C          C       0.89399   0.56223   0.59905  -0.22549
C          C       0.93288   0.61092   0.58179  -0.06703
C          C       0.02362   0.59224   0.57227  -0.08006
C          C       0.07616   0.52280   0.57874  -0.08157
C          C       0.03908   0.47320   0.59446  -0.20472
C          C       0.06228   0.64563   0.55673   0.54313
C          C       0.31238   0.68435   0.80152   0.08670
C          C       0.29122   0.75456   0.79269  -0.17719
C          C       0.28795   0.78450   0.72965   0.10992
C          C       0.30666   0.74108   0.67828  -0.17526
C          C       0.32835   0.67130   0.69089   0.09125
C          C       0.26706   0.85863   0.71676   0.09163
C          C       0.29154   0.89595   0.74797  -0.17364
C          C       0.27207   0.96558   0.73301   0.09427
C          C       0.20753   0.96388   0.65992   0.07555
C          C       0.22323   0.89434   0.67185  -0.18210
C          C       0.41566   0.39396   0.81375   0.09588
C          C       0.45000   0.32271   0.81285  -0.17061
C          C       0.48049   0.28845   0.75157   0.10304
C          C       0.47435   0.32889   0.69338  -0.17203
C          C       0.43930   0.40002   0.69852   0.09647
C          C       0.25062   0.78456   0.51829   0.53598
C          C       0.32654   0.80835   0.49872  -0.05844
C          C       0.41483   0.76119   0.48931  -0.09624
C          C       0.48522   0.78392   0.47089  -0.19966
C          C       0.46663   0.85417   0.46135   0.25930
C          C       0.37974   0.90174   0.46938  -0.19251
C          C       0.30979   0.87848   0.48851  -0.08552
C          C       0.55326   0.89388   0.49314   0.27342
C          C       0.49345   0.90037   0.56200  -0.22246
C          C       0.51497   0.91775   0.61065  -0.07071
C          C       0.59580   0.92767   0.59197  -0.07554
C          C       0.65449   0.92141   0.52247  -0.08411
C          C       0.63337   0.90539   0.47288  -0.20384
C          C       0.61890   0.94321   0.64542   0.54146
C          C       0.11346   0.69801   0.68460   0.08710
C          C       0.08385   0.70711   0.75473  -0.17461
C          C       0.01753   0.77048   0.78464   0.10865
C          C       0.98478   0.82193   0.74122  -0.17610
C          C       0.01891   0.80906   0.67147   0.09292
C          C       0.98369   0.78346   0.85880   0.09398
C          C       0.03959   0.75210   0.89615  -0.17341
C          C       0.00496   0.76716   0.96580   0.09245
C          C       0.86667   0.84043   0.96415   0.07755
C          C       0.89452   0.82850   0.89456  -0.18480
C          C       0.23092   0.68614   0.39314   0.09619
C          C       0.26394   0.68677   0.32191  -0.17181
C          C       0.23307   0.74809   0.28764   0.10336
C          C       0.16881   0.80650   0.32815  -0.17245
C          C       0.13927   0.80162   0.39929   0.09632
C          C       0.55267   0.71462   0.98300   0.53597
C          C       0.63332   0.69104   0.00200  -0.05655
C          C       0.66372   0.73885   0.01111  -0.09780
C          C       0.73809   0.71705   0.02992  -0.20314
C          C       0.78113   0.64700   0.04004   0.26058
C          C       0.75160   0.59878   0.03177  -0.19255
C          C       0.67792   0.62103   0.01223  -0.08516
C          C       0.93955   0.60721   0.00795   0.27249
C          C       0.95475   0.60061   0.93933  -0.22353
C          C       0.04255   0.58299   0.89016  -0.06832
C          C       0.11506   0.57295   0.90820  -0.07799
C          C       0.09841   0.57909   0.97750  -0.08297
C          C       0.01143   0.59534   0.02758  -0.20373
C          C       0.20735   0.55763   0.85440   0.54017
C          C       0.49659   0.80200   0.81542   0.08760
C          C       0.54579   0.79298   0.74515  -0.17531
C          C       0.57251   0.72986   0.71529   0.10997
C          C       0.54748   0.67865   0.75882  -0.17438
C          C       0.49939   0.69140   0.82867   0.09173
C          C       0.62611   0.71680   0.64113   0.09241
C          C       0.68828   0.74783   0.60349  -0.17327
C          C       0.73872   0.73265   0.53383   0.09374
C          C       0.67203   0.65971   0.53609   0.07891
C          C       0.61795   0.67185   0.60568  -0.18579
C          C       0.30983   0.81305   0.10620   0.09623
C          C       0.27300   0.81236   0.17744  -0.17146
C          C       0.26929   0.75114   0.21186   0.10276
C          C       0.30373   0.69280   0.17153  -0.17186
C          C       0.33966   0.69775   0.10037   0.09778
N          N       0.27334   0.14271   0.25227  -0.21902
N          N       0.07927   0.50028   0.18924  -0.27692
N          N       0.40032   0.93130   0.25823  -0.20632
N          N       0.66893   0.35687   0.24841  -0.21837
N          N       0.76889  -0.00003   0.31062  -0.27564
N          N       0.59011   0.56769   0.24215  -0.20628
N          N       0.91786   0.25202   0.35667  -0.22110
N          N       0.08004   0.18907  -0.00029  -0.27632
N          N       0.83053   0.25771   0.56836  -0.20635
N          N       0.52591   0.24789   0.14314  -0.21997
N          N       0.26787   0.31103   0.50035  -0.27747
N          N       0.65770   0.24294   0.93204  -0.20543
N          N       0.72666   0.85728   0.74773  -0.21928
N          N       0.92073   0.49972   0.81075  -0.27675
N          N       0.59968   0.06870   0.74176  -0.20628
N          N       0.33106   0.64313   0.75159  -0.21823
N          N       0.23111   0.00003   0.68937  -0.27595
N          N       0.40989   0.43231   0.75785  -0.20645
N          N       0.08213   0.74798   0.64333  -0.22081
N          N       0.91996   0.81092   0.00028  -0.27691
N          N       0.16947   0.74229   0.43163  -0.20658
N          N       0.47409   0.75210   0.85686  -0.22047
N          N       0.73213   0.68897   0.49965  -0.27706
N          N       0.34230   0.75706   0.06795  -0.20515
O          O       0.30322   0.02393   0.17177  -0.57134
O          O       0.20663   0.02249   0.28062  -0.55914
O          O       0.02191   0.93991   0.12337  -0.21233
O          O       0.72309   0.20907   0.05729  -0.56076
O          O       0.68235   0.12715   0.04436  -0.56308
O          O       0.50018   0.47425   0.32910  -0.57068
O          O       0.51093   0.47601   0.22037  -0.55870
O          O       0.08508   0.55860   0.37764  -0.21273
O          O       0.98809   0.29127   0.44432  -0.56039
O          O       0.85278   0.37343   0.45416  -0.56292
O          O       0.82873   0.17166   0.47273  -0.57057
O          O       0.73008   0.28070   0.47570  -0.55964
O          O       0.46215   0.12369   0.55867  -0.21227
O          O       0.43158   0.05717   0.29147  -0.56079
O          O       0.30822   0.04446   0.37351  -0.56268
O          O       0.47359   0.32929   0.02541  -0.57068
O          O       0.48787   0.22010   0.02309  -0.55983
O          O       0.14561   0.37461   0.93989  -0.21257
O          O       0.78004   0.44222   0.20869  -0.56045
O          O       0.72640   0.45418   0.12693  -0.56107
O          O       0.69678   0.97606   0.82823  -0.57119
O          O       0.79337   0.97751   0.71938  -0.55888
O          O       0.97809   0.06008   0.87662  -0.21278
O          O       0.27691   0.79093   0.94271  -0.56045
O          O       0.31765   0.87284   0.95564  -0.56372
O          O       0.49982   0.52575   0.67089  -0.57021
O          O       0.48907   0.52399   0.77963  -0.55906
O          O       0.91492   0.44140   0.62235  -0.21250
O          O       0.01191   0.70873   0.55568  -0.56056
O          O       0.14722   0.62657   0.54584  -0.56324
O          O       0.17126   0.82833   0.52727  -0.57043
O          O       0.26992   0.71929   0.52430  -0.55934
O          O       0.53785   0.87630   0.44133  -0.21189
O          O       0.56842   0.94283   0.70853  -0.56108
O          O       0.69178   0.95554   0.62649  -0.56311
O          O       0.52640   0.67071   0.97459  -0.57016
O          O       0.51213   0.77989   0.97690  -0.56022
O          O       0.85439   0.62539   0.06010  -0.21296
O          O       0.21996   0.55778   0.79131  -0.55990
O          O       0.27359   0.54581   0.87307  -0.56172

