data_crystal

_audit_creation_method 'AiiDA-DDEC plugin'

_cell_length_a        20.51186
_cell_length_b        28.42457
_cell_length_c        28.42457

_cell_angle_alpha     90.00000
_cell_angle_beta     90.00000
_cell_angle_gamma     90.00000

_symmetry_space_group_name_Hall 'P 1'
_symmetry_space_group_name_H-M  'P 1'

loop_
_symmetry_equiv_pos_as_xyz
 'x,y,z'

loop_
_atom_site_label
_atom_site_type_symbol
_atom_site_fract_x
_atom_site_fract_y
_atom_site_fract_z
_atom_site_charge
Cd         Cd      0.50000   0.01965   0.10651   0.68305
Cd         Cd      0.64381   0.53617   0.30241   0.18953
Cd         Cd      0.50000   0.60651   0.51965   0.68301
Cd         Cd      0.64381   0.30241   0.46383   0.18952
Cd         Cd      0.64381   0.19759   0.96383   0.18952
Cd         Cd      0.35618   0.80241   0.03617   0.18957
Cd         Cd      0.35618   0.96383   0.80241   0.18955
Cd         Cd      0.35618   0.46383   0.69759   0.18959
Cd         Cd      0.35618   0.69759   0.53617   0.18960
Cd         Cd      0.50000   0.89350   0.01965   0.68302
Cd         Cd      0.64381   0.69759   0.53617   0.18955
Cd         Cd      0.35618   0.30241   0.46383   0.18957
Cd         Cd      0.64381   0.03617   0.19759   0.18953
Cd         Cd      0.50000   0.10651   0.98035   0.68303
Cd         Cd      0.64381   0.96383   0.80241   0.18952
Cd         Cd      0.64381   0.80241   0.03617   0.18953
Cd         Cd      0.50000   0.98035   0.89350   0.68302
Cd         Cd      0.35618   0.03617   0.19759   0.18959
Cd         Cd      0.50000   0.39349   0.48035   0.68301
Cd         Cd      0.35618   0.19759   0.96383   0.18956
Cd         Cd      0.50000   0.51965   0.39349   0.68300
Cd         Cd      0.64381   0.46383   0.69759   0.18954
Cd         Cd      0.35618   0.53617   0.30241   0.18958
Cd         Cd      0.50000   0.48035   0.60651   0.68301
H          H       0.18970   0.74204   0.41802   0.12060
H          H       0.28515   0.19937   0.04854   0.08501
H          H       0.81030   0.25796   0.58198   0.12054
H          H       0.71485   0.30063   0.54854   0.08499
H          H       0.93384   0.34836   0.59271   0.13207
H          H       0.81030   0.91802   0.24204   0.12060
H          H       0.28515   0.04854   0.80063   0.08498
H          H       0.06616   0.59271   0.65164   0.13197
H          H       0.28515   0.69937   0.45146   0.08500
H          H       0.83522   0.36656   0.68531   0.12233
H          H       0.16478   0.68531   0.63344   0.12233
H          H       0.24830   0.81406   0.24697   0.13840
H          H       0.83522   0.63344   0.31469   0.12009
H          H       0.71485   0.54854   0.69937   0.08500
H          H       0.16478   0.86656   0.81469   0.12231
H          H       0.71485   0.19937   0.04854   0.08502
H          H       0.28515   0.80063   0.95146   0.08498
H          H       0.74022   0.09003   0.15215   0.08941
H          H       0.24830   0.24697   0.18594   0.13836
H          H       0.83522   0.68531   0.63344   0.12230
H          H       0.75170   0.75304   0.81406   0.13840
H          H       0.06616   0.84837   0.90729   0.13207
H          H       0.93384   0.59271   0.65164   0.13204
H          H       0.16478   0.81469   0.13344   0.12230
H          H       0.94826   0.22013   0.72013   0.26826
H          H       0.71485   0.80063   0.95146   0.08500
H          H       0.75170   0.81406   0.24697   0.13839
H          H       0.71485   0.69937   0.45146   0.08505
H          H       0.05174   0.27987   0.22013   0.26839
H          H       0.18970   0.58198   0.74204   0.12058
H          H       0.74022   0.84785   0.09003   0.08937
H          H       0.06616   0.90729   0.15164   0.13204
H          H       0.74022   0.59003   0.34785   0.08939
H          H       0.05174   0.72013   0.77987   0.26839
H          H       0.18970   0.08198   0.75796   0.12052
H          H       0.05174   0.77987   0.27987   0.26842
H          H       0.18970   0.75796   0.91802   0.12055
H          H       0.74022   0.90997   0.84785   0.08946
H          H       0.94826   0.77987   0.27987   0.26824
H          H       0.25978   0.34785   0.40997   0.08938
H          H       0.81030   0.58198   0.74204   0.12057
H          H       0.74022   0.65215   0.59003   0.08940
H          H       0.28515   0.45146   0.30063   0.08498
H          H       0.75170   0.24697   0.18594   0.13839
H          H       0.93384   0.65164   0.40729   0.13206
H          H       0.71485   0.04854   0.80063   0.08500
H          H       0.28515   0.54854   0.69937   0.08498
H          H       0.25978   0.65215   0.59003   0.08928
H          H       0.75170   0.74697   0.31406   0.13837
H          H       0.75170   0.18594   0.75304   0.13837
H          H       0.93384   0.90729   0.15164   0.13209
H          H       0.24830   0.74697   0.31406   0.13839
H          H       0.74022   0.15215   0.90997   0.08945
H          H       0.25978   0.90997   0.84785   0.08941
H          H       0.71485   0.95146   0.19937   0.08507
H          H       0.16478   0.18531   0.86656   0.12237
H          H       0.81030   0.24204   0.08198   0.12056
H          H       0.25978   0.15215   0.90997   0.08940
H          H       0.18970   0.24204   0.08198   0.12058
H          H       0.24830   0.75304   0.81406   0.13839
H          H       0.93384   0.40729   0.34836   0.13211
H          H       0.16478   0.13344   0.18531   0.12233
H          H       0.93384   0.84837   0.90729   0.13212
H          H       0.24830   0.25303   0.68594   0.13836
H          H       0.28515   0.95146   0.19937   0.08499
H          H       0.75170   0.31406   0.25303   0.13839
H          H       0.83522   0.81469   0.13344   0.12225
H          H       0.94826   0.72013   0.77987   0.26823
H          H       0.81030   0.75796   0.91802   0.12054
H          H       0.25978   0.59003   0.34785   0.08929
H          H       0.25978   0.84785   0.09003   0.08932
H          H       0.06616   0.15164   0.09271   0.13202
H          H       0.83522   0.13344   0.18531   0.12012
H          H       0.74022   0.34785   0.40997   0.08943
H          H       0.28515   0.30063   0.54854   0.08497
H          H       0.83522   0.18531   0.86656   0.12232
H          H       0.93384   0.15164   0.09271   0.13206
H          H       0.94826   0.27987   0.22013   0.26824
H          H       0.16478   0.31469   0.36656   0.12232
H          H       0.81030   0.74204   0.41802   0.12063
H          H       0.75170   0.25303   0.68594   0.13837
H          H       0.25978   0.09003   0.15215   0.08939
H          H       0.71485   0.45146   0.30063   0.08500
H          H       0.81030   0.08198   0.75796   0.12051
H          H       0.83522   0.86656   0.81469   0.12007
H          H       0.16478   0.63344   0.31469   0.12232
H          H       0.24830   0.18594   0.75304   0.13836
H          H       0.18970   0.91802   0.24204   0.12058
H          H       0.75170   0.68594   0.74697   0.13841
H          H       0.18970   0.25796   0.58198   0.12054
H          H       0.06616   0.34836   0.59271   0.13201
H          H       0.18970   0.41802   0.25796   0.12057
H          H       0.16478   0.36656   0.68531   0.12237
H          H       0.25978   0.40997   0.65215   0.08939
H          H       0.06616   0.40729   0.34836   0.13205
H          H       0.24830   0.31406   0.25303   0.13839
H          H       0.83522   0.31469   0.36656   0.12228
H          H       0.05174   0.22013   0.72013   0.26840
H          H       0.06616   0.09271   0.84837   0.13204
H          H       0.93384   0.09271   0.84837   0.13210
H          H       0.24830   0.68594   0.74697   0.13837
H          H       0.81030   0.41802   0.25796   0.12056
H          H       0.06616   0.65164   0.40729   0.13202
H          H       0.74022   0.40997   0.65215   0.08944
C          C       0.19140   0.35245   0.65533  -0.13690
C          C       0.05308   0.20730   0.14899   0.18518
C          C       0.24477   0.13686   0.87649  -0.10832
C          C       0.25896   0.57862   0.68478  -0.10709
C          C       0.27985   0.14213   0.09865   0.01924
C          C       0.80859   0.65533   0.64755  -0.13683
C          C       0.88147   0.71804   0.34069  -0.08073
C          C       0.88147   0.21804   0.15931  -0.08075
C          C       0.11853   0.34069   0.28196  -0.08058
C          C       0.17167   0.86394   0.19068   0.09078
C          C       0.03323   0.67242   0.38591  -0.18963
C          C       0.86001   0.24801   0.69164   0.17610
C          C       0.96677   0.88591   0.17242  -0.18935
C          C       0.33822   0.41864   0.38198   0.24661
C          C       0.33822   0.88198   0.91864   0.24649
C          C       0.05308   0.79270   0.85102   0.18523
C          C       0.17167   0.80932   0.86394   0.09073
C          C       0.05308   0.14899   0.79270   0.18520
C          C       0.25896   0.68478   0.42138  -0.10708
C          C       0.66178   0.91864   0.11802   0.24651
C          C       0.96677   0.67242   0.38591  -0.18936
C          C       0.20649   0.29748   0.23672  -0.18183
C          C       0.03323   0.88591   0.17242  -0.18960
C          C       0.80859   0.34467   0.35245  -0.13687
C          C       0.24477   0.63686   0.62351  -0.10841
C          C       0.66178   0.11802   0.08136   0.24646
C          C       0.80859   0.35245   0.65533  -0.13682
C          C       0.20543   0.29125   0.59716  -0.13764
C          C       0.11853   0.65931   0.71804  -0.08070
C          C       0.74104   0.92138   0.18478  -0.10705
C          C       0.79350   0.23672   0.70252  -0.18173
C          C       0.72015   0.09865   0.85787   0.01924
C          C       0.33822   0.08136   0.88198   0.24657
C          C       0.66178   0.38198   0.58136   0.24652
C          C       0.13998   0.24801   0.69164   0.17609
C          C       0.13998   0.80836   0.25199   0.17616
C          C       0.79457   0.90284   0.20875  -0.13766
C          C       0.80859   0.14755   0.15533  -0.13501
C          C       0.82832   0.30932   0.63606   0.09066
C          C       0.03323   0.82758   0.88591  -0.18957
C          C       0.27985   0.35787   0.59865   0.01911
C          C       0.20649   0.20252   0.73672  -0.18178
C          C       0.94692   0.14899   0.79270   0.18520
C          C       0.17167   0.63606   0.69068   0.09073
C          C       0.19140   0.34467   0.35245  -0.13694
C          C       0.33822   0.58136   0.61802   0.24671
C          C       0.88147   0.65931   0.71804  -0.08084
C          C       0.74104   0.57862   0.68478  -0.10705
C          C       0.20649   0.73672   0.79748  -0.18174
C          C       0.80859   0.64755   0.34467  -0.13505
C          C       0.75523   0.62351   0.36314  -0.10837
C          C       0.25896   0.92138   0.18478  -0.10705
C          C       0.13998   0.74801   0.80836   0.17620
C          C       0.86001   0.80836   0.25199   0.17608
C          C       0.11853   0.28196   0.65931  -0.08071
C          C       0.82832   0.36394   0.30932   0.09069
C          C       0.20543   0.59716   0.70875  -0.13766
C          C       0.03323   0.17242   0.11409  -0.18962
C          C       0.03323   0.61409   0.67242  -0.18959
C          C       0.96677   0.82758   0.88591  -0.18938
C          C       0.79457   0.20875   0.09716  -0.13767
C          C       0.75523   0.37649   0.63686  -0.10845
C          C       0.27985   0.09865   0.85787   0.01919
C          C       0.24477   0.12351   0.13686  -0.10849
C          C       0.74104   0.68478   0.42138  -0.10709
C          C       0.03323   0.11409   0.82758  -0.18957
C          C       0.94692   0.85102   0.20730   0.18522
C          C       0.79457   0.59716   0.70875  -0.13769
C          C       0.33822   0.91864   0.11802   0.24666
C          C       0.79457   0.79125   0.90284  -0.13770
C          C       0.94692   0.64899   0.70730   0.18517
C          C       0.03323   0.32758   0.61409  -0.18958
C          C       0.96677   0.11409   0.82758  -0.18941
C          C       0.96677   0.61409   0.67242  -0.18942
C          C       0.20543   0.20875   0.09716  -0.13764
C          C       0.79457   0.09716   0.79125  -0.13765
C          C       0.75523   0.87649   0.86315  -0.10832
C          C       0.66178   0.58136   0.61802   0.24652
C          C       0.72015   0.85787   0.90135   0.01925
C          C       0.79457   0.29125   0.59716  -0.13768
C          C       0.19140   0.85245   0.84467  -0.13692
C          C       0.13998   0.30836   0.24801   0.17610
C          C       0.13998   0.69164   0.75199   0.17607
C          C       0.66178   0.61802   0.41864   0.24658
C          C       0.79350   0.70252   0.76328  -0.18181
C          C       0.74104   0.18478   0.07862  -0.10708
C          C       0.82832   0.86394   0.19068   0.09069
C          C       0.82832   0.63606   0.69068   0.09075
C          C       0.86001   0.69164   0.75199   0.17603
C          C       0.74104   0.81522   0.92138  -0.10702
C          C       0.96677   0.17242   0.11409  -0.18935
C          C       0.88147   0.78196   0.84070  -0.08071
C          C       0.82832   0.19068   0.13606   0.09086
C          C       0.72015   0.14213   0.09865   0.01922
C          C       0.86001   0.30836   0.24801   0.17605
C          C       0.17167   0.69068   0.36394   0.09077
C          C       0.27985   0.64213   0.40135   0.01921
C          C       0.24477   0.87649   0.86315  -0.10841
C          C       0.88147   0.15931   0.78196  -0.08072
C          C       0.17167   0.30932   0.63606   0.09072
C          C       0.13998   0.75199   0.30836   0.17613
C          C       0.72015   0.35787   0.59865   0.01919
C          C       0.33822   0.38198   0.58136   0.24674
C          C       0.94692   0.79270   0.85102   0.18523
C          C       0.79350   0.29748   0.23672  -0.18153
C          C       0.17167   0.19068   0.13606   0.09076
C          C       0.80859   0.84467   0.14755  -0.13690
C          C       0.05308   0.64899   0.70730   0.18520
C          C       0.82832   0.13606   0.80932   0.09066
C          C       0.11853   0.71804   0.34069  -0.08064
C          C       0.74104   0.42138   0.31522  -0.10702
C          C       0.72015   0.40135   0.35787   0.01920
C          C       0.96677   0.32758   0.61409  -0.18940
C          C       0.20649   0.79748   0.26328  -0.18183
C          C       0.74104   0.07862   0.81522  -0.10713
C          C       0.05308   0.70730   0.35101   0.18516
C          C       0.20649   0.76328   0.29748  -0.18188
C          C       0.20543   0.90284   0.20875  -0.13767
C          C       0.79350   0.76328   0.29748  -0.18166
C          C       0.20649   0.23672   0.70252  -0.18182
C          C       0.25896   0.31522   0.57862  -0.10711
C          C       0.24477   0.86315   0.12351  -0.10840
C          C       0.24477   0.37649   0.63686  -0.10834
C          C       0.94692   0.20730   0.14899   0.18516
C          C       0.74104   0.31522   0.57862  -0.10708
C          C       0.79457   0.70875   0.40284  -0.13770
C          C       0.86001   0.19164   0.74801   0.17603
C          C       0.88147   0.34069   0.28196  -0.08071
C          C       0.33822   0.11802   0.08136   0.24669
C          C       0.11853   0.21804   0.15931  -0.08071
C          C       0.94692   0.35101   0.29270   0.18514
C          C       0.72015   0.64213   0.40135   0.01923
C          C       0.72015   0.90135   0.14213   0.01922
C          C       0.24477   0.62351   0.36314  -0.10839
C          C       0.25896   0.07862   0.81522  -0.10713
C          C       0.24477   0.36314   0.37649  -0.10840
C          C       0.66178   0.88198   0.91864   0.24650
C          C       0.79350   0.20252   0.73672  -0.18154
C          C       0.96677   0.38591   0.32758  -0.18940
C          C       0.75523   0.13686   0.87649  -0.10841
C          C       0.20543   0.40284   0.29125  -0.13766
C          C       0.27985   0.40135   0.35787   0.01920
C          C       0.05308   0.85102   0.20730   0.18521
C          C       0.11853   0.15931   0.78196  -0.08061
C          C       0.86001   0.25199   0.19164   0.17608
C          C       0.13998   0.25199   0.19164   0.17612
C          C       0.79350   0.73672   0.79748  -0.18151
C          C       0.79350   0.79748   0.26328  -0.18163
C          C       0.03323   0.38591   0.32758  -0.18958
C          C       0.27985   0.90135   0.14213   0.01921
C          C       0.25896   0.81522   0.92138  -0.10709
C          C       0.79457   0.40284   0.29125  -0.13769
C          C       0.20649   0.26328   0.20252  -0.18183
C          C       0.82832   0.69068   0.36394   0.09088
C          C       0.94692   0.29270   0.64899   0.18518
C          C       0.27985   0.59865   0.64213   0.01918
C          C       0.11853   0.84070   0.21804  -0.08064
C          C       0.86001   0.75199   0.30836   0.17611
C          C       0.79350   0.26328   0.20252  -0.18176
C          C       0.20543   0.70875   0.40284  -0.13766
C          C       0.20543   0.79125   0.90284  -0.13767
C          C       0.19140   0.84467   0.14755  -0.13696
C          C       0.05308   0.35101   0.29270   0.18516
C          C       0.20543   0.09716   0.79125  -0.13765
C          C       0.80859   0.15533   0.85245  -0.13686
C          C       0.75523   0.86315   0.12351  -0.10844
C          C       0.82832   0.80932   0.86394   0.09084
C          C       0.75523   0.63686   0.62351  -0.10853
C          C       0.20649   0.70252   0.76328  -0.18194
C          C       0.13998   0.19164   0.74801   0.17611
C          C       0.75523   0.12351   0.13686  -0.10833
C          C       0.19140   0.64755   0.34467  -0.13692
C          C       0.86001   0.74801   0.80836   0.17606
C          C       0.66178   0.08136   0.88198   0.24644
C          C       0.80859   0.85245   0.84467  -0.13503
C          C       0.05308   0.29270   0.64899   0.18517
C          C       0.75523   0.36314   0.37649  -0.10845
C          C       0.88147   0.84070   0.21804  -0.08075
C          C       0.17167   0.13606   0.80932   0.09073
C          C       0.17167   0.36394   0.30932   0.09074
C          C       0.66178   0.41864   0.38198   0.24652
C          C       0.27985   0.85787   0.90135   0.01929
C          C       0.72015   0.59865   0.64213   0.01921
C          C       0.19140   0.65533   0.64755  -0.13680
C          C       0.25896   0.42138   0.31522  -0.10711
C          C       0.33822   0.61802   0.41864   0.24664
C          C       0.94692   0.70730   0.35101   0.18516
C          C       0.11853   0.78196   0.84070  -0.08066
C          C       0.88147   0.28196   0.65931  -0.08082
C          C       0.25896   0.18478   0.07862  -0.10716
C          C       0.19140   0.14755   0.15533  -0.13688
C          C       0.19140   0.15533   0.85245  -0.13696
N          N       0.57884   0.09953   0.03984  -0.06463
N          N       0.37016   0.37138   0.54107  -0.22782
N          N       0.63095   0.58280   0.39553  -0.23000
N          N       0.57884   0.96016   0.09953  -0.06460
N          N       0.10150   0.71966   0.78034  -0.26192
N          N       0.57950   0.57203   0.42215  -0.06597
N          N       0.57950   0.07203   0.07785  -0.06601
N          N       0.36904   0.91721   0.89553  -0.22992
N          N       0.42116   0.40047   0.53984  -0.06480
N          N       0.00000   0.16970   0.77183  -0.41761
N          N       0.62984   0.37138   0.54107  -0.22782
N          N       0.00000   0.66970   0.72817  -0.41744
N          N       0.36904   0.10447   0.91721  -0.22973
N          N       0.63095   0.10447   0.91721  -0.22983
N          N       0.42050   0.57785   0.57203  -0.06614
N          N       0.89850   0.21966   0.71966  -0.26192
N          N       0.62984   0.04106   0.87138  -0.22776
N          N       0.37016   0.87138   0.95894  -0.22763
N          N       0.62984   0.54107   0.62862  -0.22776
N          N       0.37016   0.95894   0.12862  -0.22753
N          N       0.42116   0.03984   0.90047  -0.06474
N          N       0.63095   0.41720   0.60447  -0.22976
N          N       0.62984   0.45894   0.37138  -0.22774
N          N       0.36904   0.08280   0.10447  -0.22991
N          N       0.00000   0.77183   0.83030  -0.41770
N          N       0.42116   0.09953   0.03984  -0.06480
N          N       0.36904   0.41720   0.60447  -0.22979
N          N       0.57950   0.42215   0.42797  -0.06592
N          N       0.57884   0.40047   0.53984  -0.06472
N          N       0.42050   0.07203   0.07785  -0.06613
N          N       0.62984   0.12862   0.04106  -0.22774
N          N       0.63095   0.89553   0.08280  -0.23000
N          N       0.57884   0.59953   0.46016  -0.06464
N          N       0.00000   0.22817   0.16970  -0.41748
N          N       0.57884   0.90047   0.96016  -0.06462
N          N       0.57950   0.57785   0.57203  -0.06606
N          N       0.42050   0.92797   0.92215  -0.06603
N          N       0.57884   0.53984   0.59953  -0.06468
N          N       0.63095   0.08280   0.10447  -0.22981
N          N       0.37016   0.62862   0.45894  -0.22755
N          N       0.00000   0.33030   0.27183  -0.41755
N          N       0.10150   0.28034   0.21966  -0.26189
N          N       0.36904   0.58280   0.39553  -0.22995
N          N       0.63095   0.91721   0.89553  -0.23005
N          N       0.42050   0.42215   0.42797  -0.06612
N          N       0.42116   0.59953   0.46016  -0.06487
N          N       0.36904   0.89553   0.08280  -0.23003
N          N       0.57950   0.07785   0.92797  -0.06586
N          N       0.57950   0.42797   0.57785  -0.06596
N          N       0.57884   0.46016   0.40047  -0.06468
N          N       0.42116   0.53984   0.59953  -0.06483
N          N       0.37016   0.04106   0.87138  -0.22775
N          N       0.63095   0.39553   0.41720  -0.22990
N          N       0.37016   0.54107   0.62862  -0.22769
N          N       0.10150   0.78034   0.28034  -0.26205
N          N       0.42116   0.96016   0.09953  -0.06486
N          N       0.63095   0.60447   0.58280  -0.22978
N          N       0.36904   0.60447   0.58280  -0.22989
N          N       0.89850   0.78034   0.28034  -0.26194
N          N       0.62984   0.95894   0.12862  -0.22770
N          N       0.37016   0.45894   0.37138  -0.22763
N          N       0.00000   0.72817   0.33030  -0.41748
N          N       0.42050   0.92215   0.07203  -0.06603
N          N       0.10150   0.21966   0.71966  -0.26189
N          N       0.42116   0.90047   0.96016  -0.06472
N          N       0.42050   0.57203   0.42215  -0.06610
N          N       0.42050   0.07785   0.92797  -0.06615
N          N       0.37016   0.12862   0.04106  -0.22764
N          N       0.42116   0.46016   0.40047  -0.06480
N          N       0.00000   0.83030   0.22817  -0.41762
N          N       0.42050   0.42797   0.57785  -0.06613
N          N       0.57950   0.92797   0.92215  -0.06580
N          N       0.57950   0.92215   0.07203  -0.06595
N          N       0.36904   0.39553   0.41720  -0.22986
N          N       0.62984   0.62862   0.45894  -0.22770
N          N       0.89850   0.71966   0.78034  -0.26184
N          N       0.89850   0.28034   0.21966  -0.26190
N          N       0.57884   0.03984   0.90047  -0.06471
N          N       0.62984   0.87138   0.95894  -0.22774
N          N       0.00000   0.27183   0.66970  -0.41750
Cl         Cl      0.50000   0.19425   0.96502  -0.40123
Cl         Cl      0.50000   0.96502   0.80575  -0.40127
Cl         Cl      0.50000   0.69425   0.53499  -0.40122
Cl         Cl      0.50000   0.03499   0.19425  -0.40124
Cl         Cl      0.50000   0.53499   0.30575  -0.40124
Cl         Cl      0.50000   0.30575   0.46502  -0.40125
Cl         Cl      0.50000   0.46502   0.69425  -0.40122
Cl         Cl      0.50000   0.80575   0.03499  -0.40126

