data_crystal

_audit_creation_method 'AiiDA-DDEC plugin'

_cell_length_a        13.78378
_cell_length_b        20.96000
_cell_length_c        21.55014

_cell_angle_alpha     90.06387
_cell_angle_beta     89.97614
_cell_angle_gamma     101.47820

_symmetry_space_group_name_Hall 'P 1'
_symmetry_space_group_name_H-M  'P 1'

loop_
_symmetry_equiv_pos_as_xyz
 'x,y,z'

loop_
_atom_site_label
_atom_site_type_symbol
_atom_site_fract_x
_atom_site_fract_y
_atom_site_fract_z
_atom_site_charge
Cd         Cd      0.44596   0.73977   0.26634   0.84754
Cd         Cd      0.28979   0.77320   0.01216   0.92639
Cd         Cd      0.62392   0.62285   0.55215  -0.00297
Cd         Cd      0.05555   0.75989   0.76665   0.84739
Cd         Cd      0.21216   0.72714   0.51284   0.92640
Cd         Cd      0.87564   0.87786   0.05245  -0.00252
Cd         Cd      0.55437   0.26006   0.73354   0.84764
Cd         Cd      0.71336   0.22874   0.98787   0.92497
Cd         Cd      0.37730   0.37725   0.44837  -0.00077
Cd         Cd      0.94479   0.23905   0.23401   0.85035
Cd         Cd      0.78621   0.27126   0.48817   0.92795
Cd         Cd      0.12436   0.12141   0.94815  -0.00284
H          H       0.63581   0.77436   0.18118   0.10723
H          H       0.81381   0.82838   0.18050   0.09748
H          H       0.78458   0.86826   0.37631   0.13398
H          H       0.60761   0.81041   0.36861   0.10917
H          H       0.93594   0.91589   0.32444   0.08845
H          H       0.95463   0.12617   0.13193   0.10408
H          H       0.94427   0.00589   0.12829   0.09067
H          H       0.01978   0.01435   0.32333   0.12256
H          H       0.01792   0.13288   0.32048   0.10334
H          H       0.93625   0.90695   0.18145   0.06362
H          H       0.15764   0.88497   0.02655   0.10741
H          H       0.07076   0.93330   0.11130   0.10404
H          H       0.18643   0.80863   0.23978   0.11180
H          H       0.27472   0.77051   0.15097   0.09008
H          H       0.11719   0.93157   0.26667   0.08860
H          H       0.26164   0.82591   0.41128   0.10058
H          H       0.19260   0.87738   0.32166   0.10501
H          H       0.90739   0.75683   0.36402   0.11971
H          H       0.98798   0.71488   0.45572   0.11358
H          H       0.97292   0.80197   0.24547   0.09996
H          H       0.30995   0.65115   0.16457   0.10681
H          H       0.13522   0.59935   0.14341   0.13505
H          H       0.06162   0.66339   0.32523   0.10920
H          H       0.24072   0.70963   0.34027   0.09254
H          H       0.96741   0.57467   0.17534   0.08629
H          H       0.95906   0.34912   0.34496   0.10710
H          H       0.95940   0.46698   0.35955   0.13114
H          H       0.87400   0.47455   0.16718   0.12372
H          H       0.88432   0.35673   0.15936   0.10433
H          H       0.94992   0.56884   0.31724   0.08724
H          H       0.65319   0.70290   0.39128   0.09105
H          H       0.74082   0.69015   0.29114   0.11052
H          H       0.78409   0.50416   0.35979   0.11245
H          H       0.69987   0.52698   0.45736   0.07292
H          H       0.77740   0.55514   0.22553   0.09218
H          H       0.66331   0.69004   0.08290   0.10320
H          H       0.70621   0.64501   0.18438   0.10165
H          H       0.01432   0.70073   0.13215   0.11441
H          H       0.95866   0.74117   0.03244   0.09695
H          H       0.92108   0.68108   0.26088   0.08291
H          H       0.86692   0.72347   0.68102   0.10728
H          H       0.68923   0.66881   0.68029   0.09706
H          H       0.71701   0.63278   0.87694   0.13474
H          H       0.89394   0.69089   0.86913   0.10853
H          H       0.56632   0.58316   0.82448   0.08867
H          H       0.54859   0.37335   0.63119   0.10489
H          H       0.55927   0.49367   0.62795   0.09181
H          H       0.48283   0.48484   0.82290   0.12201
H          H       0.48363   0.36612   0.81944   0.10497
H          H       0.56619   0.59249   0.68148   0.06408
H          H       0.34287   0.61387   0.52708   0.10743
H          H       0.43033   0.56569   0.61146   0.10458
H          H       0.31673   0.69116   0.74039   0.11243
H          H       0.22758   0.72904   0.65208   0.09025
H          H       0.38537   0.56774   0.76680   0.08897
H          H       0.24085   0.67462   0.91121   0.10046
H          H       0.31011   0.62200   0.82230   0.10569
H          H       0.59525   0.74299   0.86406   0.11944
H          H       0.51461   0.78605   0.95521   0.11345
H          H       0.52997   0.69722   0.74580   0.09967
H          H       0.19051   0.84913   0.66520   0.10785
H          H       0.36507   0.90118   0.64393   0.13470
H          H       0.43976   0.83587   0.82482   0.10912
H          H       0.26056   0.79011   0.84042   0.09186
H          H       0.53286   0.92512   0.67505   0.08734
H          H       0.53881   0.15027   0.84462   0.10755
H          H       0.53924   0.03256   0.85906   0.13211
H          H       0.62834   0.02540   0.66731   0.12435
H          H       0.61672   0.14299   0.65937   0.10396
H          H       0.55088   0.93100   0.81690   0.08698
H          H       0.84317   0.79609   0.89253   0.08952
H          H       0.75744   0.80879   0.79179   0.11181
H          H       0.71775   0.99642   0.85861   0.11073
H          H       0.80054   0.97387   0.95669   0.07435
H          H       0.72356   0.94461   0.72522   0.09194
H          H       0.83798   0.80845   0.58319   0.10336
H          H       0.79434   0.85302   0.68477   0.10075
H          H       0.48691   0.80094   0.63008   0.11468
H          H       0.54332   0.76047   0.53057   0.09818
H          H       0.57968   0.81864   0.76005   0.08432
H          H       0.36473   0.22484   0.81953   0.10559
H          H       0.18693   0.17042   0.82028   0.09790
H          H       0.21596   0.13122   0.62429   0.13437
H          H       0.39286   0.18932   0.63203   0.10909
H          H       0.06502   0.08270   0.67643   0.08799
H          H       0.04698   0.87294   0.86919   0.10478
H          H       0.05732   0.99321   0.87270   0.09066
H          H       0.98113   0.98438   0.67775   0.12110
H          H       0.98262   0.86579   0.68088   0.10505
H          H       0.06479   0.09212   0.81940   0.06502
H          H       0.84219   0.11541   0.97415   0.10744
H          H       0.92956   0.06645   0.89005   0.10476
H          H       0.81519   0.19052   0.76034   0.11282
H          H       0.72687   0.22960   0.84860   0.09101
H          H       0.88347   0.06714   0.73454   0.08885
H          H       0.73824   0.17182   0.58932   0.09936
H          H       0.80782   0.12090   0.67901   0.10624
H          H       0.09235   0.24219   0.63627   0.11921
H          H       0.01134   0.28317   0.54418   0.11416
H          H       0.02771   0.19697   0.75477   0.09960
H          H       0.68992   0.34959   0.83397   0.10667
H          H       0.86459   0.40029   0.85614   0.13556
H          H       0.94008   0.33481   0.67528   0.10880
H          H       0.76091   0.28956   0.65917   0.09321
H          H       0.03289   0.42363   0.82546   0.08784
H          H       0.04081   0.64985   0.65662   0.10662
H          H       0.04056   0.53206   0.64185   0.13138
H          H       0.12753   0.52428   0.83391   0.12375
H          H       0.11709   0.64208   0.84203   0.10542
H          H       0.05090   0.43037   0.68364   0.08703
H          H       0.34641   0.29646   0.60827   0.09014
H          H       0.25931   0.30874   0.70870   0.11130
H          H       0.21728   0.49560   0.64159   0.11207
H          H       0.30107   0.47330   0.54369   0.07336
H          H       0.22344   0.44367   0.77529   0.09167
H          H       0.33882   0.31012   0.91742   0.10224
H          H       0.29496   0.35437   0.81586   0.10071
H          H       0.98720   0.29765   0.86864   0.11502
H          H       0.04368   0.25769   0.96829   0.09671
H          H       0.08009   0.31772   0.73963   0.08399
H          H       0.13409   0.27585   0.32039   0.10756
H          H       0.31182   0.33034   0.32078   0.09666
H          H       0.28294   0.36655   0.12425   0.13415
H          H       0.10598   0.30850   0.13244   0.10921
H          H       0.43345   0.41637   0.17628   0.08781
H          H       0.45095   0.62636   0.36894   0.10504
H          H       0.44039   0.50612   0.37238   0.09111
H          H       0.51748   0.51460   0.17755   0.12220
H          H       0.51676   0.63339   0.18083   0.10498
H          H       0.43410   0.40729   0.31926   0.06349
H          H       0.65766   0.38583   0.47392   0.10717
H          H       0.57115   0.43464   0.38954   0.10508
H          H       0.68156   0.30748   0.26084   0.11131
H          H       0.77026   0.26914   0.34914   0.09065
H          H       0.61555   0.43230   0.23450   0.08888
H          H       0.76190   0.32616   0.09011   0.09965
H          H       0.69203   0.37779   0.17943   0.10627
H          H       0.40645   0.25900   0.13463   0.11911
H          H       0.48800   0.21681   0.04333   0.11425
H          H       0.47163   0.30232   0.25425   0.10080
H          H       0.80973   0.14917   0.33446   0.10712
H          H       0.63464   0.09944   0.35696   0.13495
H          H       0.55951   0.16466   0.17613   0.10969
H          H       0.73897   0.20889   0.15963   0.09335
H          H       0.46675   0.07563   0.32611   0.08683
H          H       0.46196   0.85007   0.15669   0.10720
H          H       0.46119   0.96763   0.14230   0.13102
H          H       0.37224   0.97469   0.33411   0.12417
H          H       0.38393   0.85709   0.34198   0.10484
H          H       0.44953   0.06894   0.18425   0.08744
H          H       0.15627   0.20326   0.10769   0.09010
H          H       0.24195   0.19082   0.20853   0.11188
H          H       0.28390   0.00372   0.14160   0.11180
H          H       0.20129   0.02609   0.04336   0.07316
H          H       0.27592   0.05538   0.27517   0.09175
H          H       0.15878   0.18876   0.41711   0.10330
H          H       0.20421   0.14542   0.31541   0.10025
H          H       0.51099   0.20035   0.37077   0.11549
H          H       0.45295   0.23935   0.47038   0.09638
H          H       0.41943   0.18160   0.24065   0.08339
C          C       0.67274   0.79529   0.22336   0.08849
C          C       0.77203   0.82593   0.22377  -0.18024
C          C       0.81514   0.85382   0.27888   0.12596
C          C       0.75502   0.84809   0.33202  -0.18990
C          C       0.65637   0.81602   0.32823   0.08911
C          C       0.92200   0.88688   0.28182  -0.06949
C          C       0.96701   0.09938   0.17362   0.10668
C          C       0.96304   0.03248   0.17165  -0.16786
C          C       0.98029  -0.00063   0.22566   0.13231
C          C       0.00419   0.03656   0.27975  -0.20250
C          C       0.00467   0.10303   0.27865   0.08602
C          C       0.97172   0.92692   0.22496  -0.07176
C          C       0.16458   0.87184   0.07504   0.09553
C          C       0.11546   0.89761   0.12257  -0.18563
C          C       0.12171   0.87575   0.18352   0.12614
C          C       0.17959   0.82876   0.19392  -0.18735
C          C       0.22877   0.80665   0.14474   0.08381
C          C       0.06618   0.89808   0.23657  -0.07215
C          C       0.18339   0.81306   0.39915   0.09430
C          C       0.14393   0.84100   0.34919  -0.19761
C          C       0.04421   0.81967   0.33348   0.12408
C          C       0.98615   0.77391   0.37269  -0.18595
C          C       0.03011   0.74939   0.42316   0.11163
C          C       0.00216   0.84348   0.27598  -0.07899
C          C       0.25326   0.65159   0.19964   0.09240
C          C       0.15481   0.62342   0.18774  -0.18465
C          C       0.08238   0.62762   0.23224   0.12463
C          C       0.11371   0.65924   0.28821  -0.19429
C          C       0.21323   0.68622   0.29697   0.09432
C          C       0.97589   0.59883   0.22072  -0.07569
C          C       0.94118   0.37862   0.30648   0.09489
C          C       0.94009   0.44450   0.31446  -0.18388
C          C       0.91585   0.48133   0.26470   0.12685
C          C       0.89270   0.44887   0.20800  -0.20137
C          C       0.89717   0.38332   0.20305   0.08059
C          C       0.91968   0.55285   0.27147  -0.08292
C          C       0.68495   0.66016   0.38233   0.09510
C          C       0.73308   0.65235   0.32650  -0.19977
C          C       0.77054   0.59566   0.31694   0.11302
C          C       0.75697   0.54923   0.36460  -0.20115
C          C       0.70948   0.56165   0.41896   0.07881
C          C       0.82691   0.58393   0.25979  -0.07618
C          C       0.74054   0.69100   0.09532   0.08413
C          C       0.76494   0.66638   0.15239  -0.21754
C          C       0.86444   0.66929   0.16748   0.09861
C          C       0.93555   0.69733   0.12366  -0.20576
C          C       0.90471   0.72005   0.06759   0.08439
C          C       0.89593   0.64203   0.22692  -0.07127
C          C       0.82977   0.70313   0.72334   0.08917
C          C       0.73064   0.67221   0.72374  -0.18153
C          C       0.68722   0.64531   0.77910   0.12637
C          C       0.74686   0.65217   0.83247  -0.19031
C          C       0.84542   0.68439   0.82864   0.08970
C          C       0.58038   0.61225   0.78197  -0.07034
C          C       0.53585   0.40007   0.67290   0.10460
C          C       0.54012   0.46700   0.67119  -0.16904
C          C       0.52240   0.49998   0.72528   0.13083
C          C       0.49826   0.46269   0.77921  -0.20108
C          C       0.49721   0.39619   0.77782   0.08500
C          C       0.53076   0.57241   0.72493  -0.07127
C          C       0.33656   0.62733   0.57556   0.09641
C          C       0.38600   0.60157   0.62289  -0.18710
C          C       0.38054   0.62368   0.68388   0.12744
C          C       0.32303   0.67085   0.69450  -0.19109
C          C       0.27348   0.69292   0.64551   0.08375
C          C       0.43630   0.60128   0.73674  -0.07385
C          C       0.31915   0.68732   0.89915   0.09551
C          C       0.35870   0.65878   0.84952  -0.19775
C          C       0.45844   0.67996   0.83373   0.12566
C          C       0.51646   0.72609   0.87271  -0.18491
C          C       0.47245   0.75119   0.92292   0.11171
C          C       0.50043   0.65581   0.77628  -0.07705
C          C       0.24729   0.84860   0.70014   0.09173
C          C       0.34568   0.87680   0.68811  -0.18369
C          C       0.41836   0.87220   0.73222   0.12682
C          C       0.38739   0.84032   0.78809  -0.19496
C          C       0.28787   0.81351   0.79710   0.09382
C          C       0.52475   0.90095   0.72039  -0.07934
C          C       0.55746   0.12090   0.80615   0.09561
C          C       0.55910   0.05511   0.81411  -0.18427
C          C       0.58464   0.01845   0.76450   0.12521
C          C       0.60857   0.05098   0.70798  -0.20080
C          C       0.60340   0.11639   0.70299   0.08018
C          C       0.58107   0.94697   0.77113  -0.07953
C          C       0.81284   0.83927   0.88300   0.09897
C          C       0.76566   0.84700   0.82684  -0.20419
C          C       0.72966   0.90410   0.81663   0.11409
C          C       0.74385   0.95104   0.86392  -0.19745
C          C       0.79045   0.93873   0.91860   0.07830
C          C       0.67379   0.91583   0.75932  -0.07532
C          C       0.76072   0.80812   0.59512   0.08209
C          C       0.73590   0.83255   0.65223  -0.21565
C          C       0.63637   0.83067   0.66667   0.09824
C          C       0.56570   0.80369   0.62216  -0.20427
C          C       0.59697   0.78100   0.56613   0.08356
C          C       0.60474   0.85778   0.72625  -0.07489
C          C       0.32784   0.20391   0.77733   0.09054
C          C       0.22864   0.17305   0.77697  -0.18175
C          C       0.18552   0.14524   0.72182   0.12513
C          C       0.24552   0.15127   0.66862  -0.18954
C          C       0.34406   0.18353   0.67239   0.08776
C          C       0.07874   0.11194   0.71892  -0.06689
C          C       0.03429   0.89965   0.82752   0.10550
C          C       0.03831   0.96656   0.82939  -0.16776
C          C       0.02075  -0.00040   0.77539   0.13037
C          C       0.99668   0.96228   0.72138  -0.19934
C          C       0.99601   0.89580   0.72259   0.08246
C          C       0.02921   0.07208   0.77594  -0.07298
C          C       0.83577   0.12832   0.92557   0.09611
C          C       0.88510   0.10216   0.87837  -0.18584
C          C       0.87930   0.12365   0.81725   0.12699
C          C       0.82174   0.17070   0.80637  -0.19328
C          C       0.77248   0.19332   0.85524   0.08426
C          C       0.93467   0.10088   0.76433  -0.07330
C          C       0.81653   0.18492   0.60130   0.09665
C          C       0.85630   0.15724   0.65131  -0.20027
C          C       0.95603   0.17881   0.66694   0.12486
C          C       0.01369   0.22466   0.62758  -0.18350
C          C       0.96947   0.24877   0.57696   0.11038
C          C      -0.00160   0.15527   0.72450  -0.07881
C          C       0.74696   0.34851   0.79933   0.09444
C          C       0.84545   0.37610   0.81181  -0.18415
C          C       0.91837   0.37118   0.76790   0.12499
C          C       0.88753   0.33939   0.71191  -0.19420
C          C       0.78793   0.31290   0.70261   0.09083
C          C       0.02480   0.39978   0.77993  -0.07913
C          C       0.05891   0.62033   0.69505   0.09513
C          C       0.06007   0.55449   0.68694  -0.18346
C          C       0.08482   0.51761   0.73652   0.12425
C          C       0.10839   0.55001   0.79322  -0.19821
C          C       0.10382   0.61555   0.79833   0.07864
C          C       0.08112   0.44614   0.72947  -0.07872
C          C       0.31505   0.33929   0.61762   0.09818
C          C       0.26718   0.34682   0.67361  -0.20275
C          C       0.23017   0.40360   0.68366   0.11420
C          C       0.24401   0.45042   0.63636  -0.19945
C          C       0.29124   0.43829   0.58181   0.07875
C          C       0.17390   0.41504   0.74095  -0.07708
C          C       0.26140   0.30861   0.90508   0.08446
C          C       0.23650   0.33289   0.84798  -0.21561
C          C       0.13683   0.32959   0.83305   0.09755
C          C       0.06607   0.30138   0.87700  -0.20420
C          C       0.09742   0.27893   0.93306   0.08446
C          C       0.10499   0.35675   0.77364  -0.07309
C          C       0.17103   0.29606   0.27798   0.09028
C          C       0.27022   0.32695   0.27739  -0.18143
C          C       0.31337   0.35387   0.22197   0.12692
C          C       0.25339   0.34707   0.16875  -0.19147
C          C       0.15485   0.31487   0.17276   0.08750
C          C       0.42009   0.38723   0.21879  -0.06773
C          C       0.46396   0.59964   0.32730   0.10517
C          C       0.45971   0.53271   0.32912  -0.16713
C          C       0.47771   0.49964   0.27517   0.13060
C          C       0.50194   0.53683   0.22118  -0.20227
C          C       0.50300   0.60335   0.22245   0.08483
C          C       0.46956   0.42724   0.27577  -0.07116
C          C       0.66359   0.37216   0.42548   0.09814
C          C       0.61457   0.39823   0.37813  -0.18813
C          C       0.61941   0.37584   0.31719   0.12665
C          C       0.67584   0.32805   0.30668  -0.18884
C          C       0.72512   0.30572   0.35564   0.08368
C          C       0.56426   0.39853   0.26417  -0.07277
C          C       0.68336   0.31371   0.10163   0.09442
C          C       0.64346   0.34170   0.15148  -0.19851
C          C       0.54334   0.32081   0.16651   0.12442
C          C       0.48548   0.27560   0.12662  -0.18287
C          C       0.52990   0.25102   0.07629   0.11150
C          C       0.50075   0.34415   0.22417  -0.08093
C          C       0.75267   0.15040   0.29990   0.09322
C          C       0.65406   0.12330   0.31255  -0.18269
C          C       0.58121   0.12825   0.26867   0.12337
C          C       0.61210   0.15987   0.21264  -0.19339
C          C       0.71182   0.18582   0.20314   0.09098
C          C       0.47483   0.09956   0.28065  -0.07634
C          C       0.44330   0.87934   0.19523   0.09469
C          C       0.44142   0.94508   0.18727  -0.18236
C          C       0.41576   0.98170   0.23687   0.12511
C          C       0.39205   0.94915   0.29342  -0.19991
C          C       0.39736   0.88374   0.29840   0.07984
C          C       0.41901   0.05314   0.22999  -0.08137
C          C       0.18716   0.16029   0.11721   0.09744
C          C       0.23422   0.15268   0.17344  -0.20370
C          C       0.27068   0.09575   0.18367   0.11557
C          C       0.25731   0.04892   0.13628  -0.19983
C          C       0.21083   0.06113   0.08152   0.07920
C          C       0.32603   0.08414   0.24123  -0.07588
C          C       0.23632   0.18994   0.40536   0.08283
C          C       0.26213   0.16623   0.34816  -0.21686
C          C       0.36197   0.16919   0.33390   0.09854
C          C       0.43197   0.19670   0.37856  -0.20579
C          C       0.39973   0.21860   0.43469   0.08477
C          C       0.39448   0.14239   0.27440  -0.07258
S          S       0.45069   0.73358   0.08754   1.37393
S          S       0.39161   0.72728   0.43249   1.36841
S          S       0.05154   0.76733   0.58717   1.37150
S          S       0.10859   0.77139   0.93256   1.36954
S          S       0.55206   0.26853   0.91263   1.37186
S          S       0.60592   0.27048   0.56747   1.36948
S          S       0.94699   0.23215   0.41243   1.37254
S          S       0.89345   0.22778   0.06753   1.36594
N          N       0.61557   0.79009   0.27472  -0.24559
N          N       0.98568   0.13409   0.22656  -0.25901
N          N       0.22123   0.82761   0.08614  -0.23386
N          N       0.12806   0.76689   0.43455  -0.22865
N          N       0.28192   0.68358   0.25290  -0.24689
N          N       0.92047   0.34836   0.25140  -0.24565
N          N       0.67389   0.61600   0.42825  -0.20726
N          N       0.80876   0.71730   0.05299  -0.27533
N          N       0.88646   0.70941   0.77490  -0.24444
N          N       0.51622   0.36522   0.72562  -0.25653
N          N       0.28036   0.67183   0.58683  -0.23537
N          N       0.37445   0.73389   0.93423  -0.22905
N          N       0.21893   0.81640   0.75329  -0.24509
N          N       0.57878   0.15117   0.75118  -0.24513
N          N       0.82447   0.88393   0.92857  -0.20971
N          N       0.69294   0.78286   0.55213  -0.27578
N          N       0.38487   0.20939   0.72592  -0.24455
N          N       0.01517   0.86481   0.77469  -0.25698
N          N       0.77954   0.17269   0.91401  -0.23373
N          N       0.87153   0.23098   0.56564  -0.23011
N          N       0.71869   0.31630   0.74613  -0.24565
N          N       0.08001   0.65054   0.75011  -0.24561
N          N       0.32632   0.38382   0.57202  -0.20956
N          N       0.19353   0.28217   0.94755  -0.27597
N          N       0.11408   0.28979   0.22654  -0.24407
N          N       0.48386   0.63444   0.27456  -0.25671
N          N       0.71886   0.32711   0.41427  -0.23712
N          N       0.62814   0.26799   0.06564  -0.22893
N          N       0.78108   0.18218   0.24655  -0.24521
N          N       0.42203   0.84900   0.25017  -0.24605
N          N       0.17618   0.11570   0.07159  -0.20777
N          N       0.30344   0.21550   0.44863  -0.27797
O          O       0.47524   0.73369   0.15637  -0.70015
O          O       0.51931   0.70128   0.05267  -0.63832
O          O       0.34292   0.69834   0.07839  -0.69278
O          O       0.45448   0.80314   0.06569  -0.70149
O          O       0.40477   0.75906   0.36862  -0.69860
O          O       0.48093   0.70197   0.44962  -0.63645
O          O       0.29980   0.67330   0.43190  -0.69967
O          O       0.37148   0.77897   0.47788  -0.67820
O          O       0.02826   0.76504   0.65621  -0.70175
O          O       0.98205   0.79993   0.55343  -0.63535
O          O       0.15897   0.80319   0.57839  -0.69281
O          O       0.04781   0.69831   0.56339  -0.70065
O          O       0.09535   0.73927   0.86875  -0.69830
O          O       0.01934   0.79689   0.94963  -0.63762
O          O       0.20059   0.82529   0.93162  -0.70054
O          O       0.12881   0.72017   0.97813  -0.67892
O          O       0.52830   0.26636   0.84366  -0.70202
O          O       0.48654   0.30442   0.94635  -0.63792
O          O       0.66126   0.30173   0.92056  -0.69311
O          O       0.54391   0.19958   0.93688  -0.70057
O          O       0.59063   0.23812   0.63108  -0.69667
O          O       0.51895   0.29837   0.55039  -0.63647
O          O       0.69998   0.32297   0.56863  -0.70033
O          O       0.62398   0.21876   0.52176  -0.67811
O          O       0.97042   0.23613   0.34348  -0.70252
O          O       0.01499   0.19702   0.44435  -0.63652
O          O       0.83896   0.19708   0.42121  -0.69271
O          O       0.95265   0.30079   0.43754  -0.69917
O          O       0.90894   0.26026   0.13116  -0.69756
O          O       0.98073   0.20016   0.05032  -0.63668
O          O       0.79963   0.17526   0.06863  -0.69878
O          O       0.87536   0.27954   0.02185  -0.67783

