data_crystal

_audit_creation_method 'AiiDA-DDEC plugin'

_cell_length_a        19.54748
_cell_length_b        21.16845
_cell_length_c        30.16669

_cell_angle_alpha     80.74583
_cell_angle_beta     69.40428
_cell_angle_gamma     62.07165

_symmetry_space_group_name_Hall 'P 1'
_symmetry_space_group_name_H-M  'P 1'

loop_
_symmetry_equiv_pos_as_xyz
 'x,y,z'

loop_
_atom_site_label
_atom_site_type_symbol
_atom_site_fract_x
_atom_site_fract_y
_atom_site_fract_z
_atom_site_charge
Cd         Cd      0.09985   0.52395   0.72860   0.87811
Cd         Cd      0.90014   0.47604   0.27141   0.87802
Cd         Cd      0.66901   0.51673   0.66403  -0.03993
Cd         Cd      0.18666   0.48076   0.16330  -0.03853
Cd         Cd      0.37718   0.52327   0.77192   0.87845
Cd         Cd      0.33103   0.48323   0.33598  -0.03984
Cd         Cd      0.81333   0.51922   0.83670  -0.03841
Cd         Cd      0.62282   0.47672   0.22808   0.87848
H          H       0.70636   0.06086   0.90879   0.10665
H          H       0.13231   0.36199   0.71772   0.10111
H          H       0.39824   0.75506   0.91273   0.11328
H          H       0.86226   0.48590   0.12327   0.11318
H          H       0.28537   0.33407   0.33192   0.10568
H          H       0.15764   0.06585   0.53876   0.12524
H          H       0.48159   0.63225   0.73558   0.08537
H          H       0.09543   0.03567   0.42645   0.12399
H          H       0.71186   0.34228   0.35944   0.12135
H          H       0.67981   0.96206   0.66559   0.11167
H          H       0.64542   0.54597   0.81104   0.06956
H          H       0.61726   0.87865   0.10723   0.11473
H          H       0.20639   0.23883   0.74496   0.11294
H          H       0.34896   0.51438   0.62322   0.11263
H          H       0.77533   0.99248   0.13721   0.11509
H          H       0.38470   0.94610   0.43321   0.10967
H          H       0.34700   0.44880   0.70386   0.10258
H          H       0.61529   0.05390   0.56679   0.10982
H          H       0.53941   0.05619   0.51577   0.10377
H          H       0.71508   0.67085   0.17475   0.11371
H          H       0.15303   0.24381   0.41300   0.11362
H          H       0.88560   0.63052   0.76488   0.08651
H          H       0.22744   0.15800   0.31378   0.10239
H          H       0.23325   0.99192   0.36279   0.11389
H          H       0.80836   0.54625   0.68831   0.06923
H          H       0.44233   0.97247   0.26620   0.11666
H          H       0.73671   0.70537   0.03451   0.12696
H          H       0.11440   0.36946   0.23512   0.08658
H          H       0.76776   0.93854   0.40867   0.10714
H          H       0.29363   0.93914   0.09121   0.10698
H          H       0.91438   0.76358   0.04950   0.11377
H          H       0.03077   0.20767   0.32335   0.11682
H          H       0.51841   0.36774   0.26443   0.08504
H          H       0.72347   0.12336   0.51083   0.12490
H          H       0.59597   0.76687   0.70046   0.10843
H          H       0.45044   0.56663   0.35349   0.08717
H          H       0.49860   0.11227   0.31716   0.12106
H          H       0.22384   0.93478   0.03840   0.12450
H          H       0.35052   0.34789   0.90585   0.11574
H          H       0.54668   0.55308   0.61462   0.09663
H          H       0.20528   0.44806   0.79655   0.10232
H          H       0.61485   0.66954   0.32484   0.11370
H          H       0.64948   0.65211   0.09415   0.11589
H          H       0.62012   0.66492   0.83138   0.10637
H          H       0.46058   0.94381   0.48424   0.10366
H          H       0.76628   0.86856   0.55286   0.12118
H          H       0.57047   0.57853   0.52840   0.12619
H          H       0.42953   0.42147   0.47160   0.12649
H          H       0.58024   0.44938   0.13780   0.10714
H          H       0.71910   0.31610   0.22171   0.10563
H          H       0.69609   0.65114   0.40678   0.11607
H          H       0.23224   0.06146   0.59134   0.10712
H          H       0.50139   0.88773   0.68284   0.12135
H          H       0.50588   0.87809   0.39238   0.11748
H          H       0.77616   0.06522   0.96160   0.12418
H          H       0.55473   0.70444   0.46699   0.12696
H          H       0.96550   0.79390   0.17891   0.11056
H          H       0.86920   0.03458   0.07364   0.12400
H          H       0.41976   0.55062   0.86220   0.10717
H          H       0.40445   0.05495   0.98452   0.10416
H          H       0.64246   0.03663   0.16531   0.11036
H          H       0.79584   0.75572   0.74687   0.11364
H          H       0.35460   0.45402   0.18896   0.06972
H          H       0.65299   0.55119   0.29614   0.10255
H          H       0.84323   0.87984   0.17557   0.10575
H          H       0.41437   0.09082   0.41156   0.12319
H          H       0.38398   0.65268   0.91119   0.12471
H          H       0.52851   0.76236   0.36984   0.10616
H          H       0.61210   0.88522   0.81724   0.12127
H          H       0.44670   0.75696   0.75361   0.11359
H          H       0.39666   0.90538   0.11384   0.10799
H          H       0.23371   0.13144   0.44714   0.12084
H          H       0.68929   0.31440   0.44633   0.12859
H          H       0.86768   0.63800   0.28228   0.10108
H          H       0.01836   0.43272   0.85411   0.08549
H          H       0.08561   0.23642   0.95050   0.11366
H          H       0.49304   0.09095   0.08883   0.12321
H          H       0.84694   0.87657   0.01082   0.12323
H          H       0.28090   0.68389   0.77829   0.10572
H          H       0.30392   0.34885   0.59321   0.11646
H          H       0.13774   0.51410   0.87674   0.11318
H          H       0.28930   0.23749   0.87025   0.10705
H          H       0.45331   0.44691   0.38539   0.09674
H          H       0.63344   0.13253   0.05335   0.12213
H          H       0.77255   0.84198   0.68622   0.10204
H          H       0.36655   0.86747   0.94665   0.12196
H          H       0.53159   0.14427   0.75728   0.09993
H          H       0.50810   0.90716   0.54050   0.11306
H          H       0.10083   0.44634   0.11347   0.09674
H          H       0.76060   0.20469   0.67878   0.10955
H          H       0.79472   0.55193   0.20344   0.10247
H          H       0.47053   0.90767   0.16423   0.11804
H          H       0.16279   0.85298   0.89207   0.11088
H          H       0.37693   0.09352   0.66403   0.11750
H          H       0.30084   0.09538   0.61371   0.10803
H          H       0.98500   0.85194   0.60809   0.11112
H          H       0.32019   0.03793   0.33441   0.11187
H          H       0.66856   0.94743   0.06679   0.11026
H          H       0.71461   0.66592   0.66809   0.10571
H          H       0.58383   0.32447   0.60513   0.11310
H          H       0.15677   0.12016   0.82442   0.10570
H          H       0.50791   0.36024   0.78193   0.09917
H          H       0.67588   0.85609   0.25732   0.09963
H          H       0.79360   0.76116   0.25504   0.11256
H          H       0.40402   0.23312   0.29954   0.10795
H          H       0.04948   0.46484   0.93782   0.12711
H          H       0.00125   0.68544   0.94815   0.12987
H          H       0.61575   0.15622   0.18581   0.10266
H          H       0.59554   0.94505   0.01548   0.10447
H          H       0.51330   0.53469   0.43853   0.12709
H          H       0.49208   0.63976   0.21807   0.09884
H          H       0.03642   0.67946   0.21686   0.08113
H          H       0.96357   0.32054   0.78315   0.08130
H          H       0.28197   0.68114   0.28326   0.08031
H          H       0.55767   0.02753   0.73380   0.11692
H          H       0.27652   0.87664   0.48917   0.12487
H          H       0.27776   0.87938   0.32431   0.10472
H          H       0.38515   0.33045   0.67516   0.11384
H          H       0.96390   0.65306   0.58892   0.12727
H          H       0.50695   0.90904   0.91116   0.12352
H          H       0.96923   0.79232   0.67665   0.11652
H          H       0.22467   0.00752   0.86279   0.11815
H          H       0.62307   0.90647   0.33597   0.11765
H          H       0.63786   0.76490   0.79968   0.10784
H          H       0.67796   0.23631   0.54963   0.11377
H          H       0.41616   0.67553   0.39488   0.11289
H          H       0.65103   0.48561   0.37677   0.11288
H          H       0.38274   0.12134   0.89276   0.11470
H          H       0.71802   0.31887   0.71674   0.08017
H          H       0.28491   0.32915   0.82524   0.11348
H          H       0.76674   0.00808   0.63722   0.11405
H          H       0.03449   0.20610   0.82109   0.11088
H          H       0.76215   0.20792   0.17613   0.11724
H          H       0.49412   0.12191   0.60763   0.11750
H          H       0.60334   0.09462   0.88615   0.10767
H          H       0.38790   0.11478   0.18276   0.12167
H          H       0.71070   0.76251   0.12975   0.10701
H          H       0.95051   0.53516   0.06218   0.12701
H          H       0.48669   0.46530   0.56147   0.12679
H          H       0.47149   0.23764   0.63016   0.10603
H          H       0.54955   0.43337   0.64651   0.08706
H          H       0.20416   0.24426   0.25312   0.11400
H          H       0.15061   0.42053   0.02711   0.12712
H          H       0.44528   0.29555   0.53301   0.12693
H          H       0.36214   0.23509   0.20031   0.10788
H          H       0.46841   0.85572   0.24273   0.10000
H          H       0.84939   0.57947   0.97290   0.12747
H          H       0.02908   0.55136   0.63838   0.10704
H          H       0.89918   0.55365   0.88654   0.09708
H          H       0.03335   0.68459   0.72270   0.10374
H          H       0.23939   0.79531   0.32122   0.10964
H          H       0.55614   0.23739   0.75453   0.11271
H          H       0.23784   0.79207   0.82387   0.11716
H          H       0.49190   0.09284   0.45950   0.11301
H          H       0.38425   0.84377   0.81419   0.10293
H          H       0.72223   0.12062   0.67570   0.10461
H          H       0.84235   0.93415   0.46125   0.12513
H          H       0.97091   0.44864   0.36162   0.10666
H          H       0.28813   0.65772   0.64056   0.12158
H          H       0.19162   0.45373   0.31169   0.06907
H          H       0.37989   0.33507   0.16861   0.10657
H          H       0.35754   0.96336   0.83469   0.11023
H          H       0.58476   0.97316   0.23395   0.11614
H          H       0.13080   0.96541   0.92636   0.12409
H          H       0.05293   0.65660   0.86126   0.12094
H          H       0.52946   0.09233   0.83576   0.11792
H          H       0.44386   0.76261   0.24548   0.11273
H          H       0.03610   0.34694   0.41108   0.12719
H          H       0.58562   0.90918   0.58845   0.12308
H          H       0.32203   0.76370   0.45037   0.11390
H          H       0.15305   0.12343   0.98918   0.12332
H          H       0.26328   0.29463   0.96550   0.12701
H          H       0.83721   0.14702   0.10793   0.11053
H          H       0.58615   0.90745   0.95916   0.11298
H          H       0.90456   0.96433   0.57355   0.12369
H          H       0.69916   0.90462   0.38629   0.10787
H          H       0.96664   0.31540   0.27730   0.10391
H          H       0.41523   0.02683   0.76604   0.11618
H          H       0.09242   0.32337   0.89540   0.11455
H          H       0.90757   0.67662   0.10460   0.11475
H          H       0.60176   0.24493   0.08727   0.11334
H          H       0.61601   0.34732   0.08881   0.12479
H          H       0.33144   0.05257   0.93321   0.11010
H          H       0.31071   0.68560   0.55367   0.12876
H          H      -0.00127   0.31457   0.05185   0.13006
H          H       0.94707   0.34339   0.13874   0.12149
H          H       0.32411   0.14390   0.74267   0.09967
H          H       0.01499   0.14806   0.39192   0.11142
H          H       0.84696   0.75619   0.58700   0.11399
H          H       0.98163   0.56728   0.14589   0.08582
H          H       0.41384   0.09255   0.04084   0.11282
H          H       0.55330   0.24303   0.24640   0.11367
C          C       0.20247   0.28922   0.26742  -0.20243
C          C       0.64783   0.02918   0.53192  -0.17033
C          C       0.61968   0.39471   0.14516   0.10348
C          C       0.92175   0.63498   0.96538   0.26356
C          C       0.03916   0.26751   0.37179   0.10868
C          C       0.27308   0.99381   0.98245   0.16675
C          C       0.30008   0.46487   0.85123   0.54354
C          C       0.34496   0.37315   0.58605  -0.09181
C          C       0.18510   0.13529   0.43563  -0.18232
C          C       0.63667   0.96981   0.00250  -0.12232
C          C       0.38712   0.07265   0.78923  -0.18082
C          C       0.96644   0.74515   0.17084  -0.20951
C          C       0.41926   0.92024   0.82572  -0.18233
C          C       0.07862   0.41744   0.09979  -0.07075
C          C       0.01324   0.58375   0.81717   0.53839
C          C       0.30364   0.96325   0.05633  -0.12805
C          C       0.51094   0.80780   0.34644  -0.10163
C          C       0.92052   0.79580   0.60177   0.02819
C          C       0.25314   0.27231   0.78772   0.11033
C          C       0.07053   0.25413   0.86183   0.09901
C          C       0.71520   0.62785   0.08701  -0.09084
C          C       0.35216   0.97082   0.46809  -0.16995
C          C       0.41572   0.33392   0.69795  -0.17873
C          C       0.75023   0.05703   0.57076   0.17178
C          C       0.20924   0.28326   0.75665  -0.19011
C          C       0.77598   0.96094   0.47280  -0.17486
C          C       0.72250   0.26041   0.16587  -0.19257
C          C       0.15237   0.35896   0.25723   0.08070
C          C       0.56118   0.87756   0.68305  -0.18006
C          C       0.69894   0.18731   0.61537   0.04263
C          C       0.50983   0.64218   0.75740   0.08130
C          C       0.58417   0.05260   0.89140  -0.13130
C          C       0.63827   0.34263   0.43244  -0.21469
C          C       0.38372   0.67954   0.37089  -0.18634
C          C       0.30228   0.81356   0.43092  -0.11079
C          C       0.72371   0.12264   0.54690  -0.18014
C          C       0.23613   0.46558   0.64869   0.54618
C          C       0.54191   0.05188   0.86291  -0.18091
C          C       0.97881   0.60396   0.86844  -0.06423
C          C       0.97729   0.61866   0.15185   0.08994
C          C       0.52613   0.06583   0.66943   0.17688
C          C       0.02270   0.38134   0.84816   0.09012
C          C       0.50315   0.12627   0.64032  -0.19170
C          C       0.27587   0.87843   0.36087  -0.11795
C          C       0.15221   0.37688   0.95452   0.23997
C          C       0.59680   0.38155   0.65221   0.08860
C          C       0.59850   0.41586   0.31580   0.53506
C          C       0.58428   0.66607   0.30205  -0.17893
C          C       0.86115   0.80108   0.58339  -0.10570
C          C       0.46024   0.92681   0.28929  -0.18300
C          C       0.58439   0.93332   0.67252   0.17047
C          C       0.03355   0.25485   0.82916  -0.20937
C          C       0.42387   0.19189   0.19245  -0.10718
C          C       0.97880   0.65735   0.93412  -0.21865
C          C       0.83361   0.64805   0.25806   0.09650
C          C       0.57613   0.80810   0.80755  -0.10744
C          C       0.48336   0.35087   0.75778   0.09673
C          C       0.11376   0.18722   0.88472   0.04134
C          C       0.52972   0.72257   0.79477   0.09471
C          C       0.67578   0.25403   0.63829   0.09758
C          C       0.48695   0.20516   0.19430   0.04105
C          C       0.80665   0.94259   0.11764  -0.19224
C          C       0.06400   0.32000   0.87122  -0.18909
C          C       0.58074   0.07975   0.17428  -0.18240
C          C       0.27629   0.87736   0.45311  -0.18016
C          C       0.82728   0.92559   0.56258   0.18301
C          C       0.49685   0.87372   0.35968  -0.19190
C          C       0.07947   0.20420   0.39823   0.02806
C          C       0.38032   0.60529   0.85484   0.10367
C          C       0.74748   0.72237   0.70518   0.09526
C          C       0.52554   0.13949   0.72361  -0.11097
C          C       0.39852  -0.00107   0.07306   0.04724
C          C       0.35984   0.66256   0.88198  -0.18079
C          C       0.36972   0.12581   0.85993  -0.18608
C          C       0.66520   0.86084   0.22363  -0.10979
C          C       0.47867   0.94895   0.56704  -0.12165
C          C       0.33880   0.80048   0.91638  -0.10509
C          C       0.07825   0.36502   0.03462   0.26345
C          C       0.60575   0.03101   0.50263  -0.11984
C          C       0.59440   0.94717   0.36320  -0.17977
C          C       0.63731   0.94673   0.39165  -0.13235
C          C       0.67858   0.13589   0.06473  -0.18137
C          C       0.35464   0.99767   0.04242   0.04991
C          C       0.25097   0.33333   0.80219  -0.17934
C          C       0.47029   0.27742   0.20524   0.09470
C          C       0.28480   0.37215   0.91299  -0.09108
C          C       0.36332   0.03019   0.99750  -0.12246
C          C       0.51319  -0.00126   0.37020   0.16542
C          C       0.40560   0.05283   0.63681  -0.17951
C          C       0.17271   0.07441   0.43743   0.18294
C          C       0.88464   0.56121   0.06967  -0.19611
C          C       0.68940   0.31799   0.69183   0.06872
C          C       0.11575   0.18642   0.93101  -0.10976
C          C       0.47077   0.05096   0.09472  -0.16729
C          C       0.42289   0.34369   0.55283  -0.21177
C          C       0.76333   0.65732   0.05413  -0.21114
C          C       0.25139   0.94222   0.38236  -0.18986
C          C       0.43805   0.12400   0.18291  -0.18054
C          C       0.10855   0.08110   0.42291  -0.18175
C          C       0.36173   0.65737   0.56755  -0.21452
C          C       0.24838   0.33862   0.31062  -0.19390
C          C       0.81489   0.86471   0.56437  -0.18229
C          C       0.31060   0.68202   0.30817   0.06879
C          C       0.99320   0.31905   0.80816   0.07047
C          C       0.39877   0.40620   0.20118   0.08508
C          C       0.89295   0.59733   0.94856  -0.23555
C          C       0.84594   0.87872   0.13905  -0.11776
C          C       0.61627   0.32046   0.62912  -0.18645
C          C       0.62986   0.53283   0.39720  -0.07874
C          C       0.57356   0.94888   0.93262  -0.12238
C          C       0.30820   0.20504   0.30560   0.03869
C          C       0.67657   0.97175   0.03196  -0.16933
C          C       0.39780   0.00129   0.57279   0.04851
C          C       0.69909   0.79924   0.19618   0.03732
C          C       0.48681   0.00126   0.62980   0.16548
C          C       0.96083   0.73248   0.62822   0.10856
C          C       0.60147   0.00107   0.92694   0.04711
C          C       0.44159   0.63449   0.53619   0.26100
C          C       0.19276   0.05683   0.92916   0.17425
C          C       0.47386   0.93417   0.33058   0.17713
C          C       0.43881   0.12243   0.31696  -0.18013
C          C       0.51305   0.79483   0.80570   0.04126
C          C       0.18974   0.91951   0.92278  -0.18201
C          C       0.69180   0.79495   0.69440   0.03883
C          C       0.58429   0.39581   0.36699  -0.05948
C          C       0.74903   0.66666   0.19781  -0.17955
C          C       0.28422   0.79572   0.89820   0.02811
C          C       0.52922   0.94904   0.90528  -0.16694
C          C       0.49132   0.71760   0.25701  -0.19227
C          C       0.47271   0.37777   0.54409   0.24133
C          C       0.19525   0.40625   0.29925   0.08351
C          C       0.92137   0.58254   0.90022  -0.07076
C          C       0.73321   0.99421   0.51735   0.16440
C          C       0.73340   0.96303   0.44360  -0.12796
C          C       0.56195   0.87600   0.81708  -0.18054
C          C       0.71275   0.85187   0.68613  -0.11238
C          C       0.51734   0.06727   0.17242   0.16944
C          C       0.24766   0.92554   0.93716   0.18120
C          C       0.32141   0.86411   0.93527  -0.18143
C          C       0.50952   0.28831   0.23239  -0.20184
C          C       0.45809   0.94811   0.13709  -0.18065
C          C       0.50868   0.28239   0.74299  -0.19208
C          C       0.68171   0.56502   0.38871  -0.03701
C          C       0.49506   0.58207   0.60113  -0.07262
C          C       0.76386   0.53442   0.35131   0.54654
C          C       0.26678   0.00579   0.48266   0.16412
C          C       0.51280   0.00052   0.86987   0.16569
C          C       0.65068   0.35791   0.38445  -0.07818
C          C       0.83563   0.53342   0.10330  -0.07900
C          C       0.57711   0.65630   0.44717  -0.21203
C          C       0.19335   0.05741   0.88236  -0.19437
C          C       0.66074   0.91971   0.67451  -0.18621
C          C       0.79165   0.14381   0.09683  -0.12441
C          C       0.75160   0.66136   0.68938  -0.19370
C          C       0.79370   0.59955   0.21379   0.08766
C          C       0.99293   0.35842   0.11393  -0.07276
C          C       0.48265   0.93272   0.82757   0.16976
C          C       0.64535   0.00233   0.95758   0.04994
C          C       0.64737   0.99782   0.45772   0.04868
C          C       0.23667   0.34268   0.94587  -0.21101
C          C       0.60220  -0.00129   0.42721   0.04849
C          C       0.52524   0.72771   0.28780   0.10918
C          C       0.01386   0.60590   0.64573   0.10282
C          C       0.89144   0.91890   0.57710  -0.18218
C          C       0.49049   0.71167   0.76761  -0.20159
C          C       0.36269   0.05327   0.60835  -0.13254
C          C       0.51663   0.64913   0.24223   0.09776
C          C       0.71577   0.20427   0.10180   0.02822
C          C       0.73658   0.03889   0.97303  -0.17345
C          C       0.55841   0.36551   0.46381   0.26107
C          C       0.52278   0.94937   0.59433  -0.16805
C          C       0.61288   0.92735   0.21077  -0.18094
C          C       0.43477   0.85266   0.81413  -0.11589
C          C       0.74860   0.05778   0.61765  -0.18977
C          C       0.80473   0.59374   0.70075   0.08376
C          C       0.35263   0.00217   0.54229   0.04876
C          C       0.38511   0.19062   0.30741  -0.10608
C          C       0.60609   0.59924   0.28603   0.08855
C          C       0.20629   0.40044   0.78620   0.08757
C          C       0.69306   0.26779   0.12797   0.10767
C          C       0.69771   0.18644   0.56908  -0.11107
C          C       0.92947   0.74587   0.13817   0.09887
C          C       0.69866   0.32005   0.19161   0.08492
C          C       0.27750   0.73959   0.83413  -0.19268
C          C       0.30091   0.20075   0.80382   0.03733
C          C       0.49775   0.20095   0.69624   0.03736
C          C       0.40149   0.58414   0.68420   0.53497
C          C       0.26342   0.96111   0.02697  -0.17312
C          C       0.98213   0.73993   0.66642  -0.19109
C          C       0.71273   0.25396   0.67080  -0.20609
C          C       0.64016   0.33744   0.11802  -0.18065
C          C       0.97761   0.66300   0.61833  -0.18303
C          C       0.50225   0.79905   0.30376   0.03732
C          C       0.68224   0.80807   0.15331  -0.10605
C          C       0.31828   0.43497   0.61129  -0.03670
C          C       0.41560   0.06668   0.32749   0.17031
C          C       0.93613   0.85562   0.59685  -0.12477
C          C       0.48905   0.19219   0.65357  -0.10188
C          C       0.60125   0.59379   0.79882   0.08513
C          C       0.00706   0.64157   0.88607  -0.07269
C          C       0.53976   0.07319   0.71071  -0.18317
C          C       0.44715   0.43943   0.56875  -0.19502
C          C       0.69992   0.53513   0.14878   0.54348
C          C       0.74685   0.72769   0.21228   0.11050
C          C       0.52729   0.62222   0.45591   0.24128
C          C       0.02119   0.39603   0.13157  -0.06423
C          C       0.30106   0.81269   0.38464   0.04260
C          C       0.30134   0.67995   0.80839   0.08506
C          C       0.49018   0.35780   0.24261   0.08185
C          C       0.50866   0.59659   0.55282  -0.23188
C          C       0.30694   0.73221   0.87203   0.10785
C          C       0.20835   0.85619   0.90316  -0.12432
C          C       0.32421   0.74597   0.36171   0.09767
C          C       0.66119   0.19952   0.08362  -0.10504
C          C       0.75233   0.07445   0.06284   0.18120
C          C       0.02238   0.33700   0.38167  -0.18313
C          C       0.40320   0.61845   0.34779   0.08845
C          C       0.59204   0.93472   0.16943   0.17532
C          C       0.72412   0.12157   0.63913  -0.11767
C          C       0.42643   0.05112   0.06738  -0.12238
C          C       0.40795   0.06528   0.83057   0.17564
C          C       0.65504   0.62684   0.41394  -0.09178
C          C       0.49133   0.40340   0.44719  -0.23189
C          C       0.50493   0.41792   0.39887  -0.07252
C          C       0.15406   0.12128   0.86094  -0.11784
C          C       0.06386   0.14438   0.40316  -0.12485
C          C       0.84779   0.62312   0.04548   0.24031
C          C       0.00679   0.68095   0.19184   0.07043
C          C       0.32342   0.02825   0.96804  -0.16947
C          C       0.41582   0.94740   0.10860  -0.13105
C          C       0.72691   0.00619   0.01755   0.16668
C          C       0.26659   0.03697   0.55641  -0.12788
C          C       0.11536   0.43879   0.93033  -0.19563
C          C       0.88424   0.81358   0.06898  -0.10967
C          C       0.16436   0.46658   0.89670  -0.07934
C          C       0.79075   0.71673   0.24335  -0.19016
C          C       0.15357   0.12259   0.95312  -0.18073
C          C       0.55285   0.56057   0.43125  -0.19490
C          C       0.01738   0.68049   0.69243   0.08500
C          C       0.16639   0.35194   0.74194   0.09643
C          C       0.01786   0.26007   0.33358  -0.19115
C          C       0.25251   0.27762   0.29482   0.09534
C          C       0.02120   0.34265   0.06588  -0.21840
C          C       0.47722   0.05063   0.40567  -0.16795
C          C       0.79753   0.71076   0.73258  -0.20237
C          C       0.39391   0.40076   0.71397   0.08865
C          C       0.22401   0.03906   0.52720  -0.17451
C          C       0.63028   0.87418   0.14007  -0.18608
C          C       0.47446   0.86050   0.27639  -0.11101
C          C       0.93599   0.68000   0.12878  -0.18885
C          C       0.98613   0.39409   0.35427   0.10290
C          C       0.33926   0.08028   0.32550  -0.18567
C          C       0.58706   0.66107   0.81025  -0.19652
C          C       0.41295   0.33893   0.18975  -0.19645
C          C       0.24976   0.94297   0.42925   0.17183
C          C       0.84642   0.87740   0.04688  -0.18069
C          C       0.31776   0.19192   0.84669  -0.10638
C          C       0.80724   0.94317   0.07083   0.17416
C          C       0.69635   0.03675   0.94367  -0.12778
C          C       0.56523   0.14733   0.18587  -0.11595
C          C       0.88624   0.81278   0.11528   0.04136
C          C       0.34932   0.64209   0.61555  -0.07835
C          C       0.24891   0.43405   0.88810  -0.03503
C          C       0.98675   0.41622   0.18285   0.53811
C          C       0.75108   0.56595   0.11190  -0.03502
C          C       0.39424   0.96899   0.49738  -0.12022
C          C       0.48719  -0.00052   0.13013   0.16542
C          C       0.84763   0.64102   0.74277   0.08051
C          C       0.52132   0.05105   0.43297  -0.12187
C          C       0.98261   0.31950   0.30757   0.08497
C          C       0.33480   0.13915   0.77637  -0.10962
C          C       0.37014   0.46716   0.60280  -0.07891
C          C       0.61488   0.80938   0.69259  -0.10624
C          C       0.28724   0.14812   0.31387  -0.11252
C          C       0.13884   0.19892   0.41662  -0.10571
C          C       0.10704   0.40266   0.05144  -0.23575
C          C       0.28726   0.74605   0.32920  -0.20639
C          C       0.41570   0.60419   0.63302  -0.05933
C          C       0.81025   0.08049   0.07722  -0.18173
C          C       0.47476   0.27228   0.71220   0.10928
N          N       0.46778  -0.00080   0.34205  -0.13394
N          N       0.77548   0.99241   0.54795  -0.14058
N          N       0.36769   0.61848   0.31677  -0.25088
N          N       0.63230   0.38152   0.68323  -0.25123
N          N       0.22452   0.00760   0.45205  -0.14050
N          N       0.01280   0.61796   0.18305  -0.25194
N          N       0.14740   0.41748   0.27304  -0.27050
N          N       0.57278   0.59055   0.25661  -0.23353
N          N       0.35219   0.61361   0.81836  -0.23629
N          N       0.83574   0.59005   0.24341  -0.23564
N          N       0.03306   0.61427   0.68246  -0.23466
N          N       0.85259   0.58250   0.72696  -0.27053
N          N       0.53240  -0.00010   0.15812  -0.13488
N          N       0.76738   0.00778   0.04822  -0.14294
N          N       0.23261   0.99222   0.95178  -0.14326
N          N       0.42722   0.40945   0.74340  -0.23381
N          N       0.64781   0.38638   0.18164  -0.23639
N          N       0.98719   0.38204   0.81696  -0.25216
N          N       0.16425   0.40994   0.75659  -0.23566
N          N       0.43614   0.41675   0.22714  -0.27016
N          N       0.53221   0.00079   0.65795  -0.13384
N          N       0.56387   0.58324   0.77286  -0.26949
N          N       0.46759   0.00009   0.84188  -0.13556
N          N       0.96693   0.38572   0.31754  -0.23465
O          O       0.73374   0.49259   0.17857  -0.55526
O          O       0.22732   0.50763   0.67881  -0.55666
O          O       0.37199   0.44721   0.85051  -0.58798
O          O       0.01350   0.45059   0.19794  -0.55625
O          O       0.26627   0.50739   0.82142  -0.55510
O          O       0.98646   0.54940   0.80208  -0.55574
O          O       0.92936   0.40065   0.20962  -0.56001
O          O       0.44870   0.65158   0.48889  -0.23742
O          O       0.89711   0.65209   0.01283  -0.23821
O          O       0.55130   0.34842   0.51111  -0.23750
O          O       0.62800   0.55280   0.14951  -0.58763
O          O       0.10289   0.34790   0.98717  -0.23749
O          O       0.81816   0.55180   0.35049  -0.58939
O          O       0.18182   0.44820   0.64951  -0.58873
O          O       0.53652   0.45278   0.30140  -0.55494
O          O       0.32804   0.60212   0.71146  -0.55974
O          O       0.46347   0.54722   0.69860  -0.55518
O          O       0.77267   0.49235   0.32119  -0.55630
O          O       0.67195   0.39787   0.28854  -0.56008
O          O       0.07065   0.59929   0.79038  -0.56077

