data_crystal

_audit_creation_method 'AiiDA-DDEC plugin'

_cell_length_a        13.98825
_cell_length_b        25.14500
_cell_length_c        29.71152

_cell_angle_alpha     90.00000
_cell_angle_beta     90.00000
_cell_angle_gamma     94.53619

_symmetry_space_group_name_Hall 'P 1'
_symmetry_space_group_name_H-M  'P 1'

loop_
_symmetry_equiv_pos_as_xyz
 'x,y,z'

loop_
_atom_site_label
_atom_site_type_symbol
_atom_site_fract_x
_atom_site_fract_y
_atom_site_fract_z
_atom_site_charge
Gd         Gd      0.37403   0.22384   0.74169   2.03205
Gd         Gd      0.62142   0.27953   0.77891   2.03632
Gd         Gd      0.12597   0.27615   0.24169   2.03206
Gd         Gd      0.87858   0.22047   0.27891   2.03626
Gd         Gd      0.62597   0.77615   0.25831   2.03215
Gd         Gd      0.37858   0.72047   0.22109   2.03622
Gd         Gd      0.87402   0.72384   0.75831   2.03223
Gd         Gd      0.12142   0.77953   0.72109   2.03617
H          H       0.68095   0.14318   0.79965   0.15504
H          H       0.51916   0.06365   0.69162   0.15638
H          H       0.00710   0.95557   0.69940   0.15665
H          H       0.80370   0.85458   0.77692   0.15110
H          H       0.55262   0.28290   0.91427   0.14181
H          H       0.28155   0.19201   0.89362   0.14990
H          H       0.25351   0.33640   0.10804   0.15368
H          H       0.35438   0.18378   0.14299   0.14852
H          H       0.73052   0.29347   0.63321   0.14950
H          H       0.43727   0.24053   0.60169   0.14316
H          H       0.68573   0.32160   0.38309   0.14938
H          H       0.72755   0.15644   0.41100   0.16279
H          H       0.81904   0.35682   0.29965   0.15521
H          H       0.98083   0.43635   0.19162   0.15613
H          H       0.49290   0.54442   0.19941   0.15676
H          H       0.69629   0.64542   0.27693   0.15099
H          H       0.94738   0.21710   0.41427   0.14183
H          H       0.21845   0.30799   0.39362   0.14991
H          H       0.24648   0.16360   0.60804   0.15365
H          H       0.14562   0.31622   0.64299   0.14848
H          H       0.76947   0.20653   0.13321   0.14971
H          H       0.06273   0.25947   0.10169   0.14316
H          H       0.81426   0.17840   0.88309   0.14949
H          H       0.77245   0.34356   0.91100   0.16285
H          H       0.31904   0.85682   0.20035   0.15524
H          H       0.48084   0.93635   0.30837   0.15610
H          H       0.99290   0.04442   0.30059   0.15667
H          H       0.19629   0.14542   0.22307   0.15106
H          H       0.44738   0.71709   0.08572   0.14181
H          H       0.71844   0.80799   0.10638   0.14974
H          H       0.74648   0.66360   0.89196   0.15371
H          H       0.64562   0.81622   0.85701   0.14863
H          H       0.26947   0.70653   0.36679   0.14970
H          H       0.56273   0.75947   0.39831   0.14313
H          H       0.31426   0.67840   0.61691   0.14939
H          H       0.27245   0.84356   0.58900   0.16281
H          H       0.18096   0.64318   0.70035   0.15521
H          H       0.01916   0.56365   0.80837   0.15610
H          H       0.50709   0.45557   0.80059   0.15663
H          H       0.30370   0.35458   0.72307   0.15123
H          H       0.05262   0.78290   0.58572   0.14164
H          H       0.78155   0.69201   0.60638   0.14983
H          H       0.75351   0.83640   0.39196   0.15367
H          H       0.85438   0.68378   0.35701   0.14856
H          H       0.23053   0.79347   0.86679   0.14971
H          H       0.93727   0.74053   0.89831   0.14328
H          H       0.18573   0.82159   0.11691   0.14932
H          H       0.22755   0.65644   0.08900   0.16291
C          C       0.51883   0.14864   0.74745   0.63236
C          C       0.58952   0.10755   0.74650  -0.00841
C          C       0.66789   0.11036   0.77596  -0.10237
C          C       0.73021   0.07017   0.77523   0.04345
C          C       0.72138   0.02692   0.74489   0.03101
C          C       0.64452   0.02739   0.71419   0.02754
C          C       0.57846   0.06606   0.71537  -0.09923
C          C       0.79109   0.98467   0.74420   0.03018
C          C       0.87879   0.99017   0.72063   0.02747
C          C       0.93987   0.94917   0.71769  -0.09576
C          C       0.91430   0.90005   0.73794  -0.01090
C          C       0.82717   0.89249   0.76117  -0.09542
C          C       0.76873   0.93439   0.76426   0.04047
C          C       0.98009   0.85667   0.73369   0.63281
C          C       0.43839   0.23941   0.84830   0.66360
C          C       0.41946   0.23734   0.89769  -0.02622
C          C       0.48693   0.26257   0.92711  -0.09084
C          C       0.46899   0.26349   0.97295   0.03718
C          C       0.38453   0.23891   0.99231   0.04824
C          C       0.31968   0.21243   0.96170   0.03151
C          C       0.33536   0.21210   0.91541  -0.09348
C          C       0.35915   0.24733   0.04060   0.02623
C          C       0.31433   0.29294   0.05449   0.03587
C          C       0.28718   0.30044   0.09894  -0.10540
C          C       0.30035   0.26136   0.13116   0.00483
C          C       0.34364   0.21522   0.11875  -0.09463
C          C       0.37347   0.20953   0.07454   0.04564
C          C       0.26081   0.26858   0.17712   0.56819
C          C       0.55613   0.26370   0.67207   0.66421
C          C       0.58115   0.26606   0.62342  -0.02847
C          C       0.67455   0.28087   0.60925  -0.09209
C          C       0.69752   0.27819   0.56384   0.02981
C          C       0.63015   0.26012   0.53069   0.04886
C          C       0.53585   0.24780   0.54641   0.03513
C          C       0.51094   0.25080   0.59143  -0.08549
C          C       0.65641   0.25283   0.48245   0.01557
C          C       0.65533   0.29394   0.45029   0.03674
C          C       0.68447   0.28777   0.40597  -0.09934
C          C       0.71144   0.23814   0.39154   0.00152
C          C       0.70850   0.19550   0.42184  -0.10011
C          C       0.68298   0.20347   0.46637   0.03777
C          C       0.74817   0.23060   0.34505   0.56521
C          C       0.98117   0.35136   0.24745   0.63245
C          C       0.91047   0.39245   0.24650  -0.00829
C          C       0.83211   0.38964   0.27597  -0.10229
C          C       0.76978   0.42983   0.27523   0.04325
C          C       0.77861   0.47308   0.24489   0.03090
C          C       0.85547   0.47261   0.21419   0.02772
C          C       0.92154   0.43394   0.21537  -0.09935
C          C       0.70890   0.51533   0.24421   0.03030
C          C       0.62121   0.50983   0.22063   0.02754
C          C       0.56013   0.55083   0.21769  -0.09581
C          C       0.58570   0.59995   0.23794  -0.01100
C          C       0.67283   0.60751   0.26117  -0.09538
C          C       0.73127   0.56561   0.26426   0.04052
C          C       0.51991   0.64333   0.23369   0.63300
C          C       0.06161   0.26059   0.34830   0.66364
C          C       0.08053   0.26266   0.39769  -0.02615
C          C       0.01307   0.23743   0.42712  -0.09084
C          C       0.03101   0.23651   0.47295   0.03712
C          C       0.11547   0.26109   0.49231   0.04844
C          C       0.18032   0.28757   0.46170   0.03156
C          C       0.16464   0.28790   0.41542  -0.09375
C          C       0.14085   0.25267   0.54060   0.02638
C          C       0.18567   0.20706   0.55449   0.03566
C          C       0.21282   0.19956   0.59894  -0.10529
C          C       0.19965   0.23864   0.63115   0.00480
C          C       0.15636   0.28478   0.61875  -0.09475
C          C       0.12652   0.29047   0.57454   0.04570
C          C       0.23918   0.23142   0.67712   0.56836
C          C       0.94386   0.23630   0.17207   0.66398
C          C       0.91884   0.23394   0.12342  -0.02856
C          C       0.82545   0.21913   0.10925  -0.09203
C          C       0.80248   0.22181   0.06385   0.02984
C          C       0.86984   0.23988   0.03070   0.04868
C          C       0.96414   0.25220   0.04641   0.03516
C          C       0.98906   0.24920   0.09143  -0.08570
C          C       0.84359   0.24717   0.98245   0.01559
C          C       0.84466   0.20606   0.95029   0.03660
C          C       0.81552   0.21223   0.90596  -0.09921
C          C       0.78856   0.26186   0.89154   0.00157
C          C       0.79150   0.30449   0.92184  -0.10020
C          C       0.81701   0.29653   0.96637   0.03779
C          C       0.75182   0.26940   0.84505   0.56503
C          C       0.48117   0.85136   0.25255   0.63253
C          C       0.41047   0.89245   0.25350  -0.00848
C          C       0.33211   0.88964   0.22403  -0.10208
C          C       0.26979   0.92983   0.22477   0.04332
C          C       0.27861   0.97308   0.25510   0.03074
C          C       0.35548   0.97261   0.28581   0.02751
C          C       0.42154   0.93394   0.28463  -0.09916
C          C       0.20890   0.01533   0.25579   0.03029
C          C       0.12121   0.00983   0.27937   0.02755
C          C       0.06013   0.05083   0.28231  -0.09589
C          C       0.08570   0.09995   0.26206  -0.01087
C          C       0.17283   0.10751   0.23882  -0.09536
C          C       0.23127   0.06561   0.23573   0.04047
C          C       0.01991   0.14333   0.26631   0.63281
C          C       0.56161   0.76059   0.15170   0.66380
C          C       0.58053   0.76266   0.10231  -0.02616
C          C       0.51307   0.73743   0.07288  -0.09082
C          C       0.53101   0.73651   0.02705   0.03716
C          C       0.61547   0.76109   0.00769   0.04831
C          C       0.68032   0.78756   0.03830   0.03169
C          C       0.66464   0.78790   0.08458  -0.09370
C          C       0.64085   0.75266   0.95940   0.02518
C          C       0.68567   0.70706   0.94550   0.03868
C          C       0.71282   0.69956   0.90106  -0.10626
C          C       0.69965   0.73864   0.86884   0.00498
C          C       0.65636   0.78478   0.88125  -0.09468
C          C       0.62652   0.79047   0.92546   0.04566
C          C       0.73918   0.73142   0.82288   0.56795
C          C       0.44386   0.73630   0.32793   0.66395
C          C       0.41884   0.73394   0.37658  -0.02843
C          C       0.32545   0.71913   0.39075  -0.09196
C          C       0.30248   0.72181   0.43615   0.02970
C          C       0.36984   0.73988   0.46930   0.04893
C          C       0.46414   0.75220   0.45359   0.03529
C          C       0.48906   0.74920   0.40857  -0.08560
C          C       0.34359   0.74717   0.51755   0.01571
C          C       0.34466   0.70606   0.54971   0.03686
C          C       0.31553   0.71223   0.59403  -0.09964
C          C       0.28856   0.76186   0.60845   0.00180
C          C       0.29150   0.80449   0.57816  -0.10059
C          C       0.31701   0.79653   0.53363   0.03788
C          C       0.25183   0.76940   0.65495   0.56539
C          C       0.01883   0.64864   0.75255   0.63233
C          C       0.08952   0.60755   0.75350  -0.00836
C          C       0.16789   0.61036   0.72403  -0.10219
C          C       0.23021   0.57017   0.72477   0.04335
C          C       0.22138   0.52692   0.75510   0.03071
C          C       0.14452   0.52739   0.78581   0.02761
C          C       0.07846   0.56606   0.78463  -0.09928
C          C       0.29109   0.48467   0.75579   0.03048
C          C       0.37879   0.49017   0.77937   0.02741
C          C       0.43987   0.44917   0.78231  -0.09590
C          C       0.41430   0.40005   0.76205  -0.01084
C          C       0.32717   0.39249   0.73882  -0.09549
C          C       0.26873   0.43439   0.73573   0.04054
C          C       0.48009   0.35667   0.76631   0.63310
C          C       0.93839   0.73941   0.65170   0.66356
C          C       0.91946   0.73734   0.60231  -0.02626
C          C       0.98693   0.76257   0.57288  -0.09080
C          C       0.96899   0.76349   0.52705   0.03707
C          C       0.88452   0.73890   0.50769   0.04845
C          C       0.81968   0.71243   0.53830   0.03160
C          C       0.83536   0.71210   0.58458  -0.09368
C          C       0.85915   0.74733   0.45940   0.02545
C          C       0.81433   0.79294   0.44550   0.03859
C          C       0.78718   0.80044   0.40106  -0.10623
C          C       0.80034   0.76136   0.36884   0.00490
C          C       0.84364   0.71522   0.38125  -0.09460
C          C       0.87347   0.70952   0.42546   0.04549
C          C       0.76081   0.76858   0.32288   0.56809
C          C       0.05613   0.76370   0.82793   0.66385
C          C       0.08116   0.76606   0.87657  -0.02849
C          C       0.17455   0.78087   0.89075  -0.09194
C          C       0.19752   0.77819   0.93615   0.02970
C          C       0.13016   0.76012   0.96930   0.04856
C          C       0.03585   0.74780   0.95359   0.03515
C          C       0.01093   0.75080   0.90857  -0.08545
C          C       0.15641   0.75283   0.01755   0.01558
C          C       0.15534   0.79394   0.04971   0.03683
C          C       0.18447   0.78777   0.09403  -0.09950
C          C       0.21144   0.73814   0.10846   0.00169
C          C       0.20850   0.69550   0.07816  -0.10033
C          C       0.18298   0.70347   0.03363   0.03775
C          C       0.24817   0.73059   0.15495   0.56526
N          N       0.81008   0.07471   0.80786   0.52492
N          N       0.62697   0.98562   0.67917   0.51997
N          N       0.91257   0.04111   0.69863   0.52580
N          N       0.67773   0.92424   0.78921   0.52323
N          N       0.54055   0.29444   0.00118   0.52451
N          N       0.23105   0.18187   0.97734   0.52577
N          N       0.29196   0.33593   0.02266   0.52528
N          N       0.42141   0.16066   0.06339   0.52660
N          N       0.79913   0.29144   0.55207   0.52821
N          N       0.45754   0.23074   0.51506   0.53162
N          N       0.62680   0.34709   0.46388   0.52582
N          N       0.68187   0.15701   0.49695   0.52225
N          N       0.68992   0.42529   0.30786   0.52496
N          N       0.87303   0.51438   0.17917   0.52028
N          N       0.58742   0.45889   0.19863   0.52592
N          N       0.82227   0.57576   0.28921   0.52332
N          N       0.95944   0.20556   0.50118   0.52447
N          N       0.26895   0.31813   0.47734   0.52587
N          N       0.20804   0.16407   0.52265   0.52550
N          N       0.07859   0.33934   0.56339   0.52643
N          N       0.70087   0.20856   0.05207   0.52816
N          N       0.04246   0.26926   0.01506   0.53141
N          N       0.87320   0.15291   0.96388   0.52556
N          N       0.81812   0.34299   0.99695   0.52213
N          N       0.18992   0.92529   0.19214   0.52485
N          N       0.37303   0.01438   0.32083   0.52034
N          N       0.08742   0.95889   0.30137   0.52571
N          N       0.32227   0.07576   0.21079   0.52315
N          N       0.45945   0.70556   0.99882   0.52424
N          N       0.76895   0.81813   0.02266   0.52567
N          N       0.70804   0.66407   0.97734   0.52473
N          N       0.57859   0.83934   0.93661   0.52642
N          N       0.20087   0.70856   0.44793   0.52814
N          N       0.54245   0.76925   0.48494   0.53173
N          N       0.37320   0.65291   0.53612   0.52566
N          N       0.31813   0.84299   0.50304   0.52199
N          N       0.31008   0.57471   0.69214   0.52474
N          N       0.12697   0.48562   0.82083   0.52044
N          N       0.41257   0.54111   0.80136   0.52598
N          N       0.17773   0.42424   0.71079   0.52301
N          N       0.04055   0.79444   0.49882   0.52461
N          N       0.73104   0.68187   0.52266   0.52573
N          N       0.79196   0.83593   0.47734   0.52487
N          N       0.92141   0.66066   0.43661   0.52651
N          N       0.29913   0.79144   0.94792   0.52820
N          N       0.95754   0.73074   0.98494   0.53136
N          N       0.12680   0.84709   0.03612   0.52580
N          N       0.18187   0.65701   0.00305   0.52191
O          O       0.43358   0.13757   0.73409  -0.58197
O          O       0.54651   0.19591   0.76181  -0.76124
O          O       0.06588   0.86740   0.72067  -0.58959
O          O       0.94806   0.80831   0.74302  -0.75804
O          O       0.82925   0.11903   0.82514  -0.29995
O          O       0.85243   0.03419   0.81580  -0.30924
O          O       0.58121   0.99751   0.64554  -0.29234
O          O       0.65775   0.94142   0.68631  -0.32323
O          O       0.87593   0.08208   0.71107  -0.32647
O          O       0.97650   0.03968   0.67006  -0.30104
O          O       0.63762   0.96366   0.80245  -0.30888
O          O       0.64785   0.87718   0.79535  -0.29727
O          O       0.37502   0.21964   0.82064  -0.66364
O          O       0.51934   0.26227   0.83664  -0.67182
O          O       0.24266   0.22800   0.20294  -0.62968
O          O       0.23795   0.31491   0.18910  -0.61795
O          O       0.60468   0.32247   0.98160  -0.32564
O          O       0.53278   0.29073   0.04268  -0.31106
O          O       0.16263   0.17728   0.95072  -0.31870
O          O       0.23264   0.16168   0.01536  -0.31139
O          O       0.33391   0.33833   0.98585  -0.32303
O          O       0.23322   0.36711   0.03515  -0.30523
O          O       0.45227   0.15654   0.02448  -0.31612
O          O       0.42809   0.12724   0.09349  -0.30293
O          O       0.47213   0.24345   0.68175  -0.66111
O          O       0.61970   0.28062   0.70073  -0.67032
O          O       0.76290   0.18350   0.33143  -0.61919
O          O       0.77129   0.27149   0.32022  -0.63065
O          O       0.81971   0.29616   0.51149  -0.32130
O          O       0.85738   0.29672   0.58344  -0.30064
O          O       0.47662   0.20457   0.48138  -0.30319
O          O       0.37653   0.24351   0.52529  -0.33709
O          O       0.65266   0.38555   0.43969  -0.29692
O          O       0.57847   0.34929   0.49888  -0.32109
O          O       0.67671   0.11232   0.47952  -0.28885
O          O       0.68571   0.16622   0.53808  -0.32667
O          O       0.06642   0.36243   0.23409  -0.58233
O          O       0.95348   0.30409   0.26181  -0.76116
O          O       0.43412   0.63260   0.22067  -0.58944
O          O       0.55194   0.69169   0.24302  -0.75823
O          O       0.67074   0.38097   0.32515  -0.29972
O          O       0.64757   0.46581   0.31580  -0.30915
O          O       0.91878   0.50249   0.14554  -0.29266
O          O       0.84224   0.55858   0.18631  -0.32341
O          O       0.62407   0.41792   0.21107  -0.32656
O          O       0.52349   0.46032   0.17006  -0.30097
O          O       0.86237   0.53634   0.30245  -0.30883
O          O       0.85215   0.62282   0.29535  -0.29758
O          O       0.12497   0.28036   0.32064  -0.66386
O          O       0.98065   0.23773   0.33664  -0.67171
O          O       0.25734   0.27200   0.70293  -0.62990
O          O       0.26205   0.18509   0.68910  -0.61792
O          O       0.89532   0.17753   0.48160  -0.32540
O          O       0.96721   0.20927   0.54268  -0.31114
O          O       0.33737   0.32272   0.45073  -0.31888
O          O       0.26736   0.33832   0.51536  -0.31134
O          O       0.16609   0.16167   0.48585  -0.32299
O          O       0.26678   0.13289   0.53515  -0.30532
O          O       0.04772   0.34346   0.52448  -0.31593
O          O       0.07191   0.37276   0.59349  -0.30298
O          O       0.02787   0.25655   0.18175  -0.66123
O          O       0.88029   0.21938   0.20073  -0.66991
O          O       0.73709   0.31650   0.83143  -0.61919
O          O       0.72871   0.22850   0.82022  -0.63052
O          O       0.68029   0.20384   0.01149  -0.32133
O          O       0.64262   0.20328   0.08344  -0.30036
O          O       0.02338   0.29543   0.98138  -0.30324
O          O       0.12347   0.25649   0.02529  -0.33705
O          O       0.84734   0.11445   0.93969  -0.29657
O          O       0.92153   0.15071  -0.00112  -0.32123
O          O       0.82329   0.38768   0.97952  -0.28885
O          O       0.81429   0.33378   0.03808  -0.32671
O          O       0.56642   0.86243   0.26590  -0.58233
O          O       0.45348   0.80409   0.23819  -0.76111
O          O       0.93412   0.13260   0.27933  -0.58944
O          O       0.05194   0.19169   0.25698  -0.75813
O          O       0.17074   0.88097   0.17485  -0.29957
O          O       0.14757   0.96581   0.18420  -0.30921
O          O       0.41878   0.00249   0.35446  -0.29281
O          O       0.34224   0.05858   0.31369  -0.32334
O          O       0.12407   0.91792   0.28893  -0.32630
O          O       0.02350   0.96032   0.32994  -0.30112
O          O       0.36237   0.03634   0.19754  -0.30869
O          O       0.35215   0.12282   0.20464  -0.29740
O          O       0.62497   0.78035   0.17936  -0.66405
O          O       0.48066   0.73773   0.16335  -0.67161
O          O       0.75733   0.77200   0.79706  -0.62962
O          O       0.76205   0.68509   0.81089  -0.61771
O          O       0.39532   0.67753   0.01839  -0.32554
O          O       0.46722   0.70927   0.95732  -0.31061
O          O       0.83736   0.82272   0.04927  -0.31910
O          O       0.76735   0.83832   0.98464  -0.31107
O          O       0.66609   0.66167   0.01415  -0.32336
O          O       0.76678   0.63289   0.96485  -0.30531
O          O       0.54772   0.84346   0.97552  -0.31628
O          O       0.57190   0.87276   0.90651  -0.30276
O          O       0.52787   0.75655   0.31824  -0.66124
O          O       0.38029   0.71938   0.29927  -0.66992
O          O       0.23709   0.81650   0.66857  -0.61947
O          O       0.22871   0.72850   0.67978  -0.63072
O          O       0.18029   0.70384   0.48851  -0.32145
O          O       0.14262   0.70328   0.41656  -0.30032
O          O       0.52338   0.79543   0.51862  -0.30356
O          O       0.62347   0.75649   0.47471  -0.33723
O          O       0.34734   0.61445   0.56030  -0.29684
O          O       0.42153   0.65071   0.50112  -0.32095
O          O       0.32329   0.88768   0.52048  -0.28901
O          O       0.31429   0.83378   0.46192  -0.32621
O          O       0.93358   0.63757   0.76590  -0.58216
O          O       0.04652   0.69591   0.73818  -0.76112
O          O       0.56588   0.36740   0.77933  -0.58982
O          O       0.44806   0.30831   0.75698  -0.75801
O          O       0.32925   0.61903   0.67485  -0.29972
O          O       0.35243   0.53419   0.68420  -0.30892
O          O       0.08121   0.49751   0.85446  -0.29293
O          O       0.15776   0.44142   0.81369  -0.32332
O          O       0.37593   0.58208   0.78893  -0.32655
O          O       0.47650   0.53968   0.82994  -0.30128
O          O       0.13762   0.46366   0.69754  -0.30863
O          O       0.14785   0.37718   0.70464  -0.29722
O          O       0.87502   0.71964   0.67936  -0.66373
O          O       0.01934   0.76227   0.66335  -0.67168
O          O       0.74266   0.72800   0.29706  -0.62954
O          O       0.73794   0.81491   0.31090  -0.61800
O          O       0.10468   0.82247   0.51839  -0.32580
O          O       0.03278   0.79073   0.45732  -0.31086
O          O       0.66263   0.67728   0.54927  -0.31884
O          O       0.73264   0.66168   0.48464  -0.31100
O          O       0.83391   0.83833   0.51415  -0.32356
O          O       0.73322   0.86711   0.46485  -0.30528
O          O       0.95227   0.65654   0.47552  -0.31623
O          O       0.92809   0.62724   0.40651  -0.30274
O          O       0.97213   0.74345   0.81824  -0.66120
O          O       0.11971   0.78062   0.79927  -0.66999
O          O       0.26291   0.68350   0.16857  -0.61915
O          O       0.27129   0.77149   0.17978  -0.63086
O          O       0.31971   0.79615   0.98851  -0.32168
O          O       0.35738   0.79672   0.91656  -0.30020
O          O       0.97661   0.70457   0.01862  -0.30339
O          O       0.87652   0.74350   0.97471  -0.33693
O          O       0.15266   0.88555   0.06031  -0.29705
O          O       0.07847   0.84929   0.00112  -0.32102
O          O       0.17671   0.61232   0.02048  -0.28884
O          O       0.18571   0.66622   0.96192  -0.32621

