data_crystal

_audit_creation_method 'AiiDA-DDEC plugin'

_cell_length_a        16.24413
_cell_length_b        16.23987
_cell_length_c        30.54141

_cell_angle_alpha     89.99691
_cell_angle_beta     90.00459
_cell_angle_gamma     120.01799

_symmetry_space_group_name_Hall 'P 1'
_symmetry_space_group_name_H-M  'P 1'

loop_
_symmetry_equiv_pos_as_xyz
 'x,y,z'

loop_
_atom_site_label
_atom_site_type_symbol
_atom_site_fract_x
_atom_site_fract_y
_atom_site_fract_z
_atom_site_charge
La         La      0.64301   0.64304   0.50000   2.06544
La         La     -0.00010   0.35676   0.83336   2.06718
La         La      0.35704  -0.00004   0.16668   2.06503
La         La      0.35701   0.35691   0.49993   2.06846
La         La      0.00005   0.64298   0.83329   2.06552
La         La      0.64302   0.00004   0.16665   2.06608
H          H       0.16527   0.72937   0.72528   0.11821
H          H       0.50910   0.75906   0.54061   0.11512
H          H       0.31424   0.83679   0.49885   0.11272
H          H       0.45322   0.87348   0.55635   0.11904
H          H       0.23876   0.52575   0.57978   0.13388
H          H       0.99605   0.79002   0.63736   0.13468
H          H       0.28814   0.77171   0.66703   0.12222
H          H       0.29997   0.99339   0.61007   0.12205
H          H       0.33388   0.96804   0.44961   0.11485
H          H       0.11873   0.83568   0.57944   0.12896
H          H       0.87013   0.69571   0.73676   0.35838
H          H       0.18022   0.63901   0.59535   0.12888
H          H       0.31685   0.12232   0.55969   0.12318
H          H       0.56409   0.83472   0.05856   0.11832
H          H       0.24983   0.49084   0.87392   0.11547
H          H       0.52286   0.68586   0.83209   0.11319
H          H       0.42018   0.54680   0.88963   0.11915
H          H       0.28699   0.76122   0.91310   0.13395
H          H       0.79406   0.00392   0.97069   0.13441
H          H       0.48357   0.71178   0.00032   0.12174
H          H       0.69294   0.70000   0.94367   0.12192
H          H       0.63485   0.66612   0.78308   0.11482
H          H       0.71696   0.88122   0.91277   0.12903
H          H       0.82569   0.12993   0.07006   0.35870
H          H       0.45879   0.81980   0.92866   0.12861
H          H       0.80528   0.68300   0.89349   0.12364
H          H       0.27060   0.43592   0.39197   0.11803
H          H       0.24094   0.75010   0.20729   0.11511
H          H       0.16326   0.47734   0.16553   0.11282
H          H       0.12653   0.57977   0.22307   0.11925
H          H       0.47422   0.71306   0.24644   0.13419
H          H       0.20992   0.20597   0.30407   0.13452
H          H       0.22828   0.51642   0.33370   0.12210
H          H       0.00682   0.30678   0.27686   0.12219
H          H       0.03183   0.36560   0.11635   0.11476
H          H       0.16431   0.28301   0.24614   0.12890
H          H       0.30423   0.17409   0.40330   0.35845
H          H       0.36095   0.54121   0.26207   0.12891
H          H       0.87774   0.19464   0.22653   0.12316
H          H       0.83464   0.27054   0.72529   0.11796
H          H       0.49088   0.24087   0.54059   0.11507
H          H       0.68585   0.16309   0.49880   0.11279
H          H       0.54678   0.12649   0.55637   0.11905
H          H       0.76123   0.47425   0.57972   0.13391
H          H       0.00390   0.20989   0.63740   0.13424
H          H       0.71184   0.22829   0.66702   0.12233
H          H       0.69996   0.00685   0.61024   0.12228
H          H       0.66617   0.03156   0.44970   0.11474
H          H       0.88131   0.16432   0.57945   0.12899
H          H       0.12985   0.30422   0.73679   0.35864
H          H       0.81977   0.36102   0.59534   0.12873
H          H       0.68309   0.87772   0.55995   0.12352
H          H       0.43586   0.16527   0.05858   0.11855
H          H       0.75013   0.50912   0.87391   0.11543
H          H       0.47712   0.31413   0.83210   0.11315
H          H       0.57982   0.45321   0.88966   0.11935
H          H       0.71292   0.23868   0.91308   0.13373
H          H       0.20589   0.99605   0.97068   0.13450
H          H       0.51640   0.28817   0.00033   0.12191
H          H       0.30701   0.29999   0.94365   0.12223
H          H       0.36515   0.33385   0.78308   0.11499
H          H       0.28303   0.11875   0.91276   0.12916
H          H       0.17434   0.87015   0.07013   0.35865
H          H       0.54115   0.18017   0.92868   0.12880
H          H       0.19469   0.31697   0.89346   0.12393
H          H       0.72936   0.56411   0.39196   0.11837
H          H       0.75907   0.24993   0.20728   0.11507
H          H       0.83693   0.52286   0.16550   0.11292
H          H       0.87344   0.42030   0.22304   0.11929
H          H       0.52572   0.28686   0.24643   0.13434
H          H       0.79012   0.79406   0.30404   0.13433
H          H       0.77172   0.48359   0.33371   0.12217
H          H       0.99299   0.69302   0.27702   0.12379
H          H       0.96860   0.63483   0.11647   0.11485
H          H       0.83569   0.71695   0.24613   0.12895
H          H       0.69575   0.82563   0.40344   0.35857
H          H       0.63893   0.45870   0.26205   0.12868
H          H       0.12228   0.80534   0.22682   0.12355
H          H       0.43581   0.27055   0.60801   0.11835
H          H       0.74999   0.24087   0.79269   0.11485
H          H       0.47734   0.16320   0.83448   0.11264
H          H       0.57966   0.12653   0.77692   0.11914
H          H       0.71314   0.47431   0.75357   0.13420
H          H       0.20596   0.20990   0.69595   0.13450
H          H       0.51640   0.22832   0.66627   0.12197
H          H       0.30693   0.00696   0.72308   0.12391
H          H       0.36552   0.03171   0.88361   0.11452
H          H       0.28306   0.16434   0.75388   0.12899
H          H       0.17421   0.30400   0.59652   0.35848
H          H       0.54131   0.36110   0.73797   0.12906
H          H       0.19469   0.87778   0.77335   0.12370
H          H       0.72933   0.16526   0.27472   0.11830
H          H       0.75904   0.50915   0.45940   0.11520
H          H       0.83684   0.31419   0.50117   0.11295
H          H       0.87342   0.45324   0.44364   0.11917
H          H       0.52576   0.23880   0.42021   0.13427
H          H       0.79009   0.99607   0.36262   0.13450
H          H       0.77166   0.28813   0.33298   0.12203
H          H       0.99298   0.29997   0.38974   0.12224
H          H       0.96833   0.33386   0.55029   0.11448
H          H       0.83568   0.11875   0.42054   0.12886
H          H       0.69575   0.87011   0.26320   0.35831
H          H       0.63901   0.18024   0.40461   0.12886
H          H       0.12216   0.31698   0.44000   0.12345
H          H       0.83472   0.56418   0.94141   0.11847
H          H       0.49086   0.24984   0.12606   0.11524
H          H       0.68590   0.52288   0.16788   0.11311
H          H       0.54683   0.42022   0.11035   0.11925
H          H       0.76122   0.28697   0.08691   0.13400
H          H       0.00398   0.79410   0.02932   0.13433
H          H       0.71182   0.48360  -0.00035   0.12212
H          H       0.70002   0.69304   0.05636   0.12226
H          H       0.66614   0.63477   0.21691   0.11480
H          H       0.88129   0.71699   0.08723   0.12890
H          H       0.12983   0.82570   0.92990   0.35871
H          H       0.81983   0.45882   0.07135   0.12875
H          H       0.68298   0.80529   0.10656   0.12357
H          H       0.56408   0.72939   0.60807   0.11831
H          H       0.25002   0.75910   0.79274   0.11517
H          H       0.52266   0.83678   0.83449   0.11291
H          H       0.42031   0.87352   0.77694   0.11905
H          H       0.28701   0.52577   0.75356   0.13388
H          H       0.79403   0.79011   0.69597   0.13428
H          H       0.48363   0.77183   0.66631   0.12219
H          H       0.69332   0.99335   0.72321   0.12354
H          H       0.63438   0.96817   0.88369   0.11462
H          H       0.71701   0.83579   0.75389   0.12874
H          H       0.82557   0.69577   0.59655   0.35891
H          H       0.45880   0.63906   0.73792   0.12890
H          H       0.80548   0.12236   0.77355   0.12304
H          H       0.27069   0.83474   0.27474   0.11850
H          H       0.24105   0.49093   0.45945   0.11525
H          H       0.16299   0.68587   0.50122   0.11306
H          H       0.12663   0.54679   0.44363   0.11941
H          H       0.47430   0.76129   0.42022   0.13415
H          H       0.20990   0.00392   0.36261   0.13447
H          H       0.22826   0.71182   0.33298   0.12187
H          H       0.00703   0.69996   0.38964   0.12235
H          H       0.03128   0.66620   0.55022   0.11468
H          H       0.16431   0.88124   0.42053   0.12889
H          H       0.30431   0.12992   0.26320   0.35867
H          H       0.36105   0.81980   0.40458   0.12901
H          H       0.87775   0.68305   0.43981   0.12384
H          H       0.16531   0.43583   0.94141   0.11844
H          H       0.50915   0.75016   0.12607   0.11538
H          H       0.31416   0.47719   0.16787   0.11295
H          H       0.45321   0.57981   0.11031   0.11934
H          H       0.23877   0.71301   0.08693   0.13390
H          H       0.99603   0.20589   0.02932   0.13462
H          H       0.28816   0.51639  -0.00033   0.12209
H          H       0.29997   0.30698   0.05639   0.12381
H          H       0.33388   0.36529   0.21693   0.11495
H          H       0.11870   0.28300   0.08724   0.12896
H          H       0.86987   0.17425   0.93001   0.35880
H          H       0.18020   0.54117   0.07132   0.12888
H          H       0.31695   0.19468   0.10660   0.12351
C          C       0.37808   0.63579   0.56024  -0.02397
C          C       0.31290   0.76358   0.57723   0.16740
C          C       0.15690   0.75343   0.69322  -0.07254
C          C       0.43752   0.73382   0.55294  -0.08102
C          C       0.31570   0.89948   0.51227  -0.17622
C          C       0.40607   0.79763   0.56147  -0.17688
C          C       0.21130   0.80645   0.61944   0.16231
C          C       0.28496   0.60211   0.57542  -0.06987
C          C       0.30229   0.90506   0.55756   0.17139
C          C       0.06107   0.78849   0.64399  -0.06938
C          C       0.22479   0.77647   0.66071  -0.17578
C          C       0.30668   0.98760   0.57493  -0.17562
C          C       0.32685   0.97268   0.48481  -0.08758
C          C       0.41341   0.56748   0.55130   0.60562
C          C       0.12950   0.81327   0.61144  -0.16605
C          C       0.00429   0.73223   0.72160   0.60379
C          C       0.32459   0.12623   0.47210   0.59327
C          C       0.25253   0.66507   0.58400  -0.17311
C          C       0.07457   0.75882   0.68521  -0.04119
C          C       0.31673   0.05954   0.54707  -0.07430
C          C       0.32462   0.05194   0.50158  -0.03247
C          C       0.25763   0.62185   0.89356  -0.02337
C          C       0.45063   0.68714   0.91052   0.16824
C          C       0.59648   0.84308   0.02650  -0.07287
C          C       0.29623   0.56245   0.88625  -0.08188
C          C       0.58390   0.68427   0.84564  -0.17583
C          C       0.39147   0.59393   0.89475  -0.17634
C          C       0.59509   0.78871   0.95274   0.16185
C          C       0.31713   0.71503   0.90875  -0.06962
C          C       0.60269   0.69765   0.89097   0.17131
C          C       0.72746   0.93892   0.97731  -0.06937
C          C       0.55163   0.77518   0.99400  -0.17499
C          C       0.68066   0.69323   0.90851  -0.17494
C          C       0.64609   0.67307   0.81832  -0.08784
C          C       0.15399   0.58654   0.88463   0.60478
C          C       0.68375   0.87048   0.94475  -0.16564
C          C       0.72759   0.99576   0.05488   0.60307
C          C       0.80196   0.67534   0.80610   0.59163
C          C       0.41249   0.74747   0.91730  -0.17314
C          C       0.68419   0.92540   0.01850  -0.04025
C          C       0.74266   0.68312   0.88081  -0.07444
C          C       0.72734   0.67523   0.83530  -0.03144
C          C       0.36418   0.74235   0.22690  -0.02385
C          C       0.23647   0.54935   0.24392   0.16769
C          C       0.24658   0.40350   0.35991  -0.07214
C          C       0.26620   0.70373   0.21960  -0.08129
C          C       0.10054   0.41617   0.17897  -0.17668
C          C       0.20237   0.60845   0.22815  -0.17663
C          C       0.19358   0.40486   0.28612   0.16201
C          C       0.39791   0.68290   0.24208  -0.06961
C          C       0.09498   0.39727   0.22428   0.17185
C          C       0.21148   0.27256   0.31067  -0.06901
C          C       0.22353   0.44830   0.32739  -0.17561
C          C       0.01251   0.31921   0.24172  -0.17503
C          C       0.02725   0.35406   0.15156  -0.08818
C          C       0.43263   0.84602   0.21801   0.60564
C          C       0.18672   0.31621   0.27812  -0.16618
C          C       0.26788   0.27216   0.38827   0.60462
C          C       0.87356   0.19814   0.13913   0.59410
C          C       0.33492   0.58749   0.25067  -0.17380
C          C       0.24119   0.31576   0.35186  -0.04158
C          C       0.94052   0.25729   0.21392  -0.07479
C          C       0.94805   0.27269   0.16843  -0.03116
C          C       0.62185   0.36414   0.56021  -0.02417
C          C       0.68711   0.23645   0.57722   0.16809
C          C       0.84307   0.24652   0.69323  -0.07249
C          C       0.56247   0.26613   0.55289  -0.08139
C          C       0.68434   0.10045   0.51230  -0.17602
C          C       0.59395   0.20235   0.56145  -0.17670
C          C       0.78873   0.19361   0.61943   0.16209
C          C       0.71502   0.39790   0.57536  -0.06929
C          C       0.69771   0.09498   0.55760   0.17193
C          C       0.93889   0.21145   0.64401  -0.06893
C          C       0.77520   0.22353   0.66070  -0.17537
C          C       0.69327   0.01252   0.57510  -0.17588
C          C       0.67316   0.02714   0.48491  -0.08815
C          C       0.58640   0.43238   0.55134   0.60650
C          C       0.87050   0.18673   0.61144  -0.16583
C          C       0.99565   0.26754   0.72161   0.60449
C          C       0.67552   0.87351   0.47263   0.59231
C          C       0.74748   0.33497   0.58396  -0.17374
C          C       0.92537   0.24109   0.68522  -0.04140
C          C       0.68321   0.94050   0.54732  -0.07445
C          C       0.67537   0.94801   0.50184  -0.03087
C          C       0.74232   0.37811   0.89355  -0.02337
C          C       0.54933   0.31284   0.91053   0.16826
C          C       0.40347   0.15689   0.02652  -0.07296
C          C       0.70372   0.43750   0.88623  -0.08176
C          C       0.41607   0.31570   0.84564  -0.17666
C          C       0.60849   0.40604   0.89475  -0.17671
C          C       0.40487   0.21126   0.95275   0.16223
C          C       0.68281   0.28491   0.90872  -0.06954
C          C       0.39728   0.30233   0.89096   0.17211
C          C       0.27250   0.06104   0.97731  -0.06920
C          C       0.44833   0.22477   0.99400  -0.17551
C          C       0.31930   0.30674   0.90850  -0.17565
C          C       0.35389   0.32690   0.81831  -0.08792
C          C       0.84597   0.41342   0.88466   0.60516
C          C       0.31622   0.12947   0.94475  -0.16567
C          C       0.27226   0.00428   0.05492   0.60402
C          C       0.19800   0.32459   0.80609   0.59290
C          C       0.58746   0.25249   0.91730  -0.17346
C          C       0.31575   0.07456   0.01851  -0.04109
C          C       0.25730   0.31685   0.88078  -0.07435
C          C       0.27264   0.32473   0.83528  -0.03136
C          C       0.63582   0.25766   0.22688  -0.02394
C          C       0.76347   0.45063   0.24392   0.16809
C          C       0.75339   0.59650   0.35989  -0.07229
C          C       0.73380   0.29628   0.21960  -0.08105
C          C       0.89958   0.58393   0.17902  -0.17626
C          C       0.79761   0.39156   0.22815  -0.17699
C          C       0.80635   0.59511   0.28612   0.16204
C          C       0.60204   0.31705   0.24208  -0.07001
C          C       0.90502   0.60272   0.22434   0.17189
C          C       0.78853   0.72746   0.31066  -0.06887
C          C       0.77645   0.55168   0.32738  -0.17564
C          C       0.98743   0.68071   0.24187  -0.17689
C          C       0.97294   0.64612   0.15170  -0.08798
C          C       0.56742   0.15402   0.21797   0.60531
C          C       0.81326   0.68377   0.27812  -0.16637
C          C       0.73187   0.72765   0.38823   0.60285
C          C       0.12652   0.80205   0.13947   0.59257
C          C       0.66502   0.41246   0.25068  -0.17339
C          C       0.75878   0.68422   0.35186  -0.04118
C          C       0.05952   0.74271   0.21416  -0.07438
C          C       0.05204   0.72739   0.16866  -0.03126
C          C       0.74234   0.36420   0.77310  -0.02414
C          C       0.54937   0.23652   0.75608   0.16807
C          C       0.40341   0.24656   0.64008  -0.07302
C          C       0.70367   0.26616   0.78037  -0.08106
C          C       0.41619   0.10054   0.82100  -0.17668
C          C       0.60844   0.20240   0.77183  -0.17707
C          C       0.40488   0.19366   0.71388   0.16184
C          C       0.68292   0.39794   0.75791  -0.06983
C          C       0.39732   0.09505   0.77570   0.17162
C          C       0.27254   0.21150   0.68932  -0.06902
C          C       0.44831   0.22359   0.67260  -0.17535
C          C       0.31930   0.01259   0.75822  -0.17637
C          C       0.35405   0.02723   0.84839  -0.08790
C          C       0.84600   0.43247   0.78201   0.60685
C          C       0.31624   0.18679   0.72188  -0.16653
C          C       0.27177   0.26747   0.61170   0.60427
C          C       0.19806   0.87354   0.86069   0.59295
C          C       0.58756   0.33503   0.74933  -0.17371
C          C       0.31568   0.24113   0.64810  -0.04065
C          C       0.25735   0.94055   0.78599  -0.07470
C          C       0.27272   0.94808   0.83148  -0.03132
C          C       0.63582   0.37816   0.43976  -0.02387
C          C       0.76348   0.31286   0.42277   0.16775
C          C       0.75337   0.15689   0.30677  -0.07270
C          C       0.73380   0.43753   0.44706  -0.08133
C          C       0.89951   0.31573   0.48769  -0.17621
C          C       0.79760   0.40610   0.43854  -0.17662
C          C       0.80634   0.21128   0.38055   0.16185
C          C       0.60207   0.28496   0.42457  -0.06989
C          C       0.90498   0.30234   0.44237   0.17078
C          C       0.78850   0.06109   0.35600  -0.06931
C          C       0.77638   0.22475   0.33930  -0.17530
C          C       0.98739   0.30676   0.42488  -0.17488
C          C       0.97282   0.32687   0.51507  -0.08781
C          C       0.56743   0.41339   0.44867   0.60647
C          C       0.81323   0.12950   0.38856  -0.16605
C          C       0.73219   0.00433   0.27837   0.60380
C          C       0.12650   0.32444   0.52728   0.59224
C          C       0.66504   0.25256   0.41600  -0.17338
C          C       0.75881   0.07457   0.31480  -0.04039
C          C       0.05941   0.31683   0.45264  -0.07447
C          C       0.05191   0.32463   0.49814  -0.03079
C          C       0.62191   0.25768   0.10646  -0.02416
C          C       0.68714   0.45065   0.08945   0.16824
C          C       0.84310   0.59656   0.97348  -0.07244
C          C       0.56247   0.29623   0.11375  -0.08122
C          C       0.68431   0.58393   0.15435  -0.17657
C          C       0.59395   0.39152   0.10521  -0.17702
C          C       0.78876   0.59513   0.04725   0.16260
C          C       0.71504   0.31713   0.09126  -0.06945
C          C       0.69769   0.60273   0.10903   0.17231
C          C       0.93896   0.72749   0.02270  -0.06886
C          C       0.77522   0.55170   0.00598  -0.17590
C          C       0.69326   0.68071   0.09150  -0.17564
C          C       0.67311   0.64608   0.18169  -0.08771
C          C       0.58666   0.15405   0.11537   0.60612
C          C       0.87053   0.68380   0.05525  -0.16631
C          C       0.99574   0.72785   0.94509   0.60382
C          C       0.67545   0.80204   0.19386   0.59262
C          C       0.74749   0.41254   0.08268  -0.17326
C          C       0.92545   0.68427   0.98149  -0.04110
C          C       0.68313   0.74268   0.11922  -0.07411
C          C       0.67528   0.72734   0.16471  -0.03161
C          C       0.25774   0.63583   0.77313  -0.02406
C          C       0.45070   0.76360   0.75608   0.16805
C          C       0.59652   0.75345   0.64013  -0.07179
C          C       0.29638   0.73386   0.78044  -0.08133
C          C       0.58385   0.89948   0.82106  -0.17635
C          C       0.39160   0.79765   0.77187  -0.17706
C          C       0.59520   0.80651   0.71390   0.16197
C          C       0.31720   0.60213   0.75794  -0.06955
C          C       0.60278   0.90508   0.77575   0.17140
C          C       0.72747   0.78855   0.68934  -0.06923
C          C       0.55172   0.77654   0.67264  -0.17563
C          C       0.68089   0.98761   0.75835  -0.17579
C          C       0.64593   0.97275   0.84848  -0.08806
C          C       0.15404   0.56750   0.78196   0.60613
C          C       0.68382   0.81334   0.72190  -0.16594
C          C       0.72769   0.73196   0.61176   0.60382
C          C       0.80164   0.12633   0.86112   0.59293
C          C       0.41255   0.66509   0.74933  -0.17334
C          C       0.68421   0.75881   0.64814  -0.04168
C          C       0.74281   0.05959   0.78618  -0.07457
C          C       0.72734   0.05201   0.83167  -0.03239
C          C       0.36423   0.62192   0.43980  -0.02344
C          C       0.23654   0.68718   0.42277   0.16825
C          C       0.24664   0.84309   0.30679  -0.07271
C          C       0.26626   0.56255   0.44713  -0.08173
C          C       0.10037   0.68431   0.48767  -0.17609
C          C       0.20245   0.59397   0.43857  -0.17674
C          C       0.19364   0.78872   0.38056   0.16175
C          C       0.39798   0.71513   0.42461  -0.06960
C          C       0.09497   0.69766   0.44234   0.17144
C          C       0.21149   0.93891   0.35600  -0.06889
C          C       0.22358   0.77521   0.33931  -0.17508
C          C       0.01258   0.69325   0.42479  -0.17535
C          C       0.02699   0.67314   0.51498  -0.08798
C          C       0.43259   0.58661   0.44863   0.60590
C          C       0.18676   0.87049   0.38856  -0.16589
C          C       0.26822   0.99576   0.27842   0.60343
C          C       0.87345   0.67550   0.52718   0.59171
C          C       0.33500   0.74751   0.41600  -0.17397
C          C       0.24125   0.92541   0.31481  -0.04050
C          C       0.94048   0.68318   0.45250  -0.07446
C          C       0.94793   0.67534   0.49800  -0.03090
C          C       0.37814   0.74238   0.10644  -0.02384
C          C       0.31285   0.54935   0.08947   0.16826
C          C       0.15689   0.40343   0.97348  -0.07267
C          C       0.43755   0.70379   0.11375  -0.08169
C          C       0.31571   0.41610   0.15436  -0.17625
C          C       0.40604   0.60848   0.10523  -0.17658
C          C       0.21124   0.40486   0.04726   0.16237
C          C       0.28499   0.68290   0.09128  -0.06950
C          C       0.30232   0.39729   0.10905   0.17184
C          C       0.06105   0.27250   0.02271  -0.06941
C          C       0.22478   0.44828   0.00598  -0.17599
C          C       0.30673   0.31929   0.09152  -0.17650
C          C       0.32690   0.35395   0.18171  -0.08824
C          C       0.41344   0.84605   0.11534   0.60546
C          C       0.12948   0.31619   0.05525  -0.16593
C          C       0.00424   0.27210   0.94511   0.60405
C          C       0.32461   0.19802   0.19393   0.59319
C          C       0.25251   0.58747   0.08270  -0.17369
C          C       0.07454   0.31571   0.98150  -0.04098
C          C       0.31683   0.25732   0.11926  -0.07423
C          C       0.32471   0.27266   0.16474  -0.03167
N          N       0.27906   0.82712   0.58550  -0.08584
N          N       0.54797   0.72098   0.91880  -0.08648
N          N       0.17293   0.45196   0.25219  -0.08580
N          N       0.72100   0.17298   0.58549  -0.08658
N          N       0.45200   0.27901   0.91881  -0.08667
N          N       0.82697   0.54801   0.25219  -0.08598
N          N       0.45201   0.17304   0.74781  -0.08563
N          N       0.82699   0.27904   0.41449  -0.08528
N          N       0.72104   0.54804   0.08119  -0.08687
N          N       0.54807   0.82713   0.74783  -0.08629
N          N       0.17302   0.72098   0.41449  -0.08526
N          N       0.27900   0.45198   0.08118  -0.08682
O          O       0.35358   0.47937   0.55191  -0.61364
O          O       0.02962   0.72829   0.75965  -0.58065
O          O       0.50191   0.60436   0.54317  -0.66626
O          O       0.32567   0.11528   0.43083  -0.52656
O          O       0.32046   0.19308   0.49147  -0.64301
O          O       0.91990   0.71589   0.70998  -0.45934
O          O       0.12582   0.64644   0.88524  -0.61248
O          O       0.69755   0.97062   0.09286  -0.58057
O          O       0.10224   0.49801   0.87649  -0.66620
O          O       0.79057   0.67444   0.76480  -0.52633
O          O       0.87239   0.67932   0.82601  -0.64189
O          O       0.79612   0.07997   0.04330  -0.45959
O          O       0.52059   0.87413   0.21862  -0.61264
O          O       0.27221   0.30173   0.42626  -0.58038
O          O       0.39582   0.89778   0.20990  -0.66667
O          O       0.88412   0.20963   0.09783  -0.52721
O          O       0.80693   0.12746   0.15879  -0.64296
O          O       0.28387   0.20385   0.37663  -0.46049
O          O       0.64635   0.52050   0.55194  -0.61338
O          O       0.97027   0.27108   0.75972  -0.58240
O          O       0.49789   0.39561   0.54326  -0.66759
O          O       0.67454   0.88384   0.43132  -0.52583
O          O       0.67970   0.80706   0.49248  -0.64263
O          O       0.08010   0.28416   0.70997  -0.45973
O          O       0.87409   0.35351   0.88528  -0.61274
O          O       0.30196   0.02954   0.09294  -0.58085
O          O       0.89776   0.50197   0.87653  -0.66627
O          O       0.20922   0.32535   0.76479  -0.52639
O          O       0.12765   0.32070   0.82605  -0.64233
O          O       0.20396   0.91995   0.04333  -0.45979
O          O       0.47946   0.12585   0.21862  -0.61151
O          O       0.72708   0.69772   0.42623  -0.58052
O          O       0.60432   0.10231   0.20985  -0.66765
O          O       0.11607   0.79082   0.09816  -0.52656
O          O       0.19300   0.87244   0.15942  -0.64245
O          O       0.71609   0.79609   0.37665  -0.45949
O          O       0.87429   0.52058   0.78138  -0.61338
O          O       0.30054   0.27090   0.57358  -0.58239
O          O       0.89763   0.39557   0.79015  -0.66793
O          O       0.20926   0.88401   0.90199  -0.52687
O          O       0.12763   0.80695   0.84082  -0.64224
O          O       0.20399   0.28414   0.62338  -0.46003
O          O       0.47947   0.35367   0.44806  -0.61241
O          O       0.72819   0.02960   0.24036  -0.58055
O          O       0.60438   0.50204   0.45684  -0.66761
O          O       0.11597   0.32500   0.56860  -0.52635
O          O       0.19304   0.32077   0.50732  -0.64199
O          O       0.71588   0.91989   0.29003  -0.46054
O          O       0.64655   0.12591   0.11472  -0.61296
O          O       0.97053   0.69834   0.90705  -0.58036
O          O       0.49818   0.10239   0.12352  -0.66645
O          O       0.67469   0.79085   0.23520  -0.52688
O          O       0.67938   0.87240   0.17392  -0.64205
O          O       0.08005   0.79608   0.95670  -0.46049
O          O       0.12588   0.47944   0.78141  -0.61331
O          O       0.69786   0.72737   0.57374  -0.58095
O          O       0.10225   0.60429   0.78997  -0.66664
O          O       0.78968   0.11561   0.90239  -0.52656
O          O       0.87266   0.19308   0.84170  -0.64258
O          O       0.79601   0.71601   0.62332  -0.45967
O          O       0.52058   0.64653   0.44808  -0.61201
O          O       0.27313   0.97061   0.24044  -0.58046
O          O       0.39581   0.49795   0.45666  -0.66746
O          O       0.88388   0.67463   0.56849  -0.52680
O          O       0.80702   0.67949   0.50724  -0.64196
O          O       0.28395   0.08000   0.28999  -0.46013
O          O       0.35350   0.87415   0.11471  -0.61333
O          O       0.02953   0.30165   0.90708  -0.58064
O          O       0.50190   0.89778   0.12348  -0.66577
O          O       0.32548   0.20926   0.23524  -0.52680
O          O       0.32059   0.12754   0.17403  -0.64230
O          O       0.91992   0.20389   0.95671  -0.45989

