data_crystal

_audit_creation_method 'AiiDA-DDEC plugin'

_cell_length_a        18.37747
_cell_length_b        18.32482
_cell_length_c        24.08121

_cell_angle_alpha     90.04262
_cell_angle_beta     89.95739
_cell_angle_gamma     120.27245

_symmetry_space_group_name_Hall 'P 1'
_symmetry_space_group_name_H-M  'P 1'

loop_
_symmetry_equiv_pos_as_xyz
 'x,y,z'

loop_
_atom_site_label
_atom_site_type_symbol
_atom_site_fract_x
_atom_site_fract_y
_atom_site_fract_z
_atom_site_charge
Eu         Eu     -0.00032  -0.00007   0.62930   1.53365
Eu         Eu     -0.00038  -0.00000   0.87088   1.53525
Eu         Eu      0.00021   0.00019   0.12915   1.53482
Eu         Eu      0.00006   0.00014   0.37097   1.53721
Zn         Zn     -0.00004   0.66268   0.09161   0.70635
Zn         Zn      0.21152  -0.00021   0.14287   0.88592
Zn         Zn      0.49856  -0.00006   0.50111   0.57115
Zn         Zn      0.66809   0.33364   0.61845   0.74722
Zn         Zn      0.00013   0.50000   0.50107   0.57250
Zn         Zn      0.66237   0.66316   0.90937   0.71907
Zn         Zn      0.78842   0.00038   0.64268   0.88548
Zn         Zn     -0.00007   0.33709   0.59278   0.71033
Zn         Zn      0.50129   0.50001   0.50129   0.57284
Zn         Zn      0.66228   0.66285   0.59316   0.71856
Zn         Zn      0.78845   0.00012   0.85914   0.88634
Zn         Zn      0.66607   0.33339   0.88182   0.74734
Zn         Zn      0.00021   0.66277   0.40940   0.70755
Zn         Zn      0.33361   0.66638   0.38195   0.74820
Zn         Zn      0.66208   0.00007   0.40967   0.70131
Zn         Zn      0.00019   0.21134   0.35906   0.88726
Zn         Zn      0.66566   0.33320   0.11813   0.74527
Zn         Zn     -0.00020   0.49998  -0.00122   0.57290
Zn         Zn      0.33439   0.66686   0.61822   0.74521
Zn         Zn      0.33548  -0.00038   0.91008   0.69618
Zn         Zn     -0.00022   0.33715   0.90731   0.70996
Zn         Zn      0.00029   0.21195   0.14098   0.88668
Zn         Zn      0.49870   0.50010   0.00108   0.57339
Zn         Zn      0.21131   0.21130   0.85947   0.88769
Zn         Zn      0.00001   0.78895   0.85898   0.88684
Zn         Zn      0.50124   0.00010   0.00117   0.57124
Zn         Zn      0.66571   0.33310   0.38202   0.74591
Zn         Zn      0.33770   0.33693   0.09284   0.71101
Zn         Zn     -0.00003   0.78873   0.64251   0.88527
Zn         Zn      0.21132  -0.00043   0.35926   0.88668
Zn         Zn      0.21148   0.21146   0.64257   0.88632
Zn         Zn      0.66205   0.00011   0.09289   0.70246
Zn         Zn      0.33122   0.66631   0.11823   0.74762
Zn         Zn      0.33804   0.33701   0.40954   0.71206
Zn         Zn      0.78868   0.78858   0.35932   0.88783
Zn         Zn      0.33762  -0.00003   0.59276   0.69956
Zn         Zn      0.33455   0.66702   0.88189   0.74568
Zn         Zn      0.78872   0.78868   0.14257   0.88740
H          H       0.46622   0.22583   0.82230   0.31722
H          H       0.21016  -0.00182   0.49171   0.10955
H          H       0.24269   0.77326   0.67987   0.31651
H          H       0.17515   0.78480   0.36470   0.32720
H          H       0.21279   0.21020   0.99135   0.11134
H          H       0.51440   0.34213   0.56998   0.11014
H          H       0.61187   0.78724   0.63836   0.33430
H          H       0.78893   0.00163   0.51030   0.10978
H          H       0.48587   0.82850   0.93411   0.11036
H          H       0.21585   0.82621   0.86573   0.32683
H          H       0.55425   0.00841   0.62839   0.31350
H          H       0.61839   0.63870   0.16434   0.31312
H          H       0.16998   0.51311   0.06583   0.11046
H          H       0.65812   0.17055   0.57080   0.10971
H          H       0.47341   0.23597   0.32516   0.31999
H          H       0.17162   0.65845   0.92881   0.10973
H          H       0.77169   0.24221   0.81992   0.31565
H          H       0.77354   0.24273   0.68036   0.31627
H          H       0.17165   0.65836   0.57113   0.10948
H          H       0.78521   0.17554   0.13644   0.32758
H          H       0.65846   0.17149   0.93026   0.10955
H          H       0.23214   0.47306   0.17378   0.32024
H          H       0.35889   0.97521   0.16463   0.31201
H          H       0.65661   0.48538   0.06634   0.11045
H          H       0.52922   0.76842   0.17815   0.31723
H          H       0.54559   0.55251   0.12802   0.31521
H          H       0.48589   0.65889   0.06919   0.10946
H          H       0.78879   0.79030   0.49156   0.11128
H          H       0.53208   0.77315   0.32180   0.31722
H          H       0.55457   0.00774   0.87390   0.31555
H          H       0.21482   0.82509   0.63587   0.32706
H          H       0.48644   0.82927   0.56828   0.10976
H          H       0.78997   0.00241   0.99181   0.10947
H          H       0.97651   0.35924   0.33764   0.31189
H          H       0.61246   0.78685   0.86239   0.33325
H          H       0.21112   0.99749   0.01084   0.10960
H          H       0.51319   0.34207   0.93103   0.11019
H          H       0.21181   0.21067   0.51048   0.11126
H          H       0.38823   0.21253   0.13635   0.33263
H          H      -0.00142   0.21062   0.00891   0.11020
H          H       0.24427   0.77590   0.82107   0.31638
H          H       0.82531   0.61174   0.36596   0.33209
H          H       0.48720   0.65865   0.43198   0.11025
H          H       0.46822   0.22828   0.67865   0.31711
H          H       0.99131   0.44573   0.37356   0.31379
H          H       0.76221   0.52720   0.17437   0.31924
H          H       0.34138   0.82865   0.43011   0.10958
H          H       0.64119   0.02361   0.83769   0.31121
H          H       0.00882   0.55479   0.87241   0.31327
H          H       0.99784   0.21002   0.49107   0.11071
H          H       0.54550   0.55410   0.37416   0.31490
H          H       0.17572   0.38784   0.63473   0.33413
H          H       0.02378   0.64140   0.83668   0.31046
H          H       0.82848   0.48593   0.93302   0.11012
H          H       0.61000   0.82385   0.13494   0.32761
H          H       0.51345   0.17045   0.06848   0.11009
H          H       0.34332   0.51487   0.93275   0.10994
H          H       0.38820   0.21365   0.36409   0.33360
H          H       0.38970   0.17659   0.63363   0.32744
H          H       0.76078   0.52686   0.32691   0.32000
H          H       0.34168   0.82911   0.07102   0.10976
H          H       0.78804   0.61257   0.63719   0.33387
H          H       0.61098   0.82526   0.36655   0.32809
H          H       0.00151   0.78952   0.99077   0.11070
H          H       0.82437   0.21385   0.63618   0.32806
H          H       0.76797   0.52622   0.82695   0.32102
H          H       0.51371   0.17127   0.43338   0.10992
H          H       0.45474   0.44603   0.62853   0.31204
H          H       0.78788   0.78996   0.01020   0.11091
H          H       0.44484   0.99117   0.37368   0.31466
H          H       0.21378   0.38786   0.36511   0.33482
H          H       0.52664   0.76507   0.82410   0.32061
H          H       0.24247   0.47368   0.82671   0.31946
H          H       0.23402   0.47372   0.32696   0.32006
H          H       0.38255   0.35886   0.83746   0.31123
H          H       0.97601   0.35920   0.16241   0.31180
H          H       0.75659   0.22587   0.32123   0.31697
H          H       0.82486   0.61152   0.13442   0.33230
H          H       0.75703   0.22765   0.18016   0.31617
H          H       0.99043   0.44557   0.12656   0.31324
H          H       0.61755   0.64082   0.33821   0.31180
H          H       0.38323   0.35856   0.66414   0.31083
H          H       0.24190   0.47323   0.67321   0.32046
H          H       0.52519   0.76608   0.67573   0.32038
H          H       0.17193   0.51408   0.43479   0.10988
H          H       0.17519   0.78568   0.13430   0.32693
H          H       0.47364   0.23479   0.17509   0.31990
H          H       0.82791   0.34099   0.43055   0.10944
H          H       0.22456   0.75606   0.17905   0.31748
H          H       0.44607   0.99153   0.12904   0.31407
H          H       0.21258   0.38766   0.13536   0.33325
H          H       0.82408   0.21425   0.86335   0.32747
H          H       0.00215   0.78971   0.51017   0.11026
H          H       0.78742   0.61254   0.86456   0.33359
H          H       0.35802   0.97509   0.33772   0.31191
H          H       0.65771   0.48571   0.43366   0.10987
H          H       0.76885   0.52594   0.67431   0.32084
H          H       0.38833   0.17386   0.86761   0.32735
H          H       0.78425   0.17374   0.36512   0.32738
H          H       0.34372   0.51479   0.56716   0.11006
H          H       0.82941   0.48600   0.56719   0.11014
H          H       0.45432   0.44630   0.87284   0.31284
H          H       0.02319   0.64069   0.66406   0.31103
H          H       0.82768   0.34099   0.06925   0.10984
H          H       0.17597   0.38805   0.86485   0.33328
H          H       0.00861   0.55432   0.62808   0.31313
H          H       0.22601   0.75596   0.32062   0.31666
H          H       0.64122   0.02493   0.66416   0.31004
C          C       0.68215   0.17828   0.38864   0.50124
C          C       0.56656   0.16213   0.07765   0.12964
C          C       0.04793   0.20668   0.61211   0.49883
C          C       0.50554   0.68377   0.88739   0.50841
C          C       0.40333   0.83769   0.42162   0.12003
C          C       0.79239   0.95018   0.38744   0.49505
C          C       0.68265   0.17904   0.11290   0.50232
C          C       0.43311   0.59660   0.07828   0.12191
C          C       0.26481   0.04893   0.25072   0.44538
C          C       0.95277   0.22674   0.25000   0.44689
C          C       0.00081   0.35771   0.41887   0.49921
C          C       0.77166   0.04865   0.75044   0.44458
C          C       0.20710   0.15783   0.39055   0.49528
C          C       0.56589   0.40439   0.92192   0.12315
C          C       0.20620   0.04919   0.88916   0.49312
C          C       0.17940   0.49528   0.61216   0.50697
C          C       0.49516   0.31651   0.38899   0.50702
C          C       0.95175   0.79293   0.11327   0.49827
C          C       0.17944   0.49539   0.88765   0.50621
C          C       0.20788   0.05012   0.61574   0.49370
C          C       0.40349   0.83775   0.07942   0.11909
C          C       0.56712   0.40434   0.57933   0.12578
C          C       0.56650   0.16245   0.42406   0.12901
C          C       0.04943   0.84141   0.11485   0.49232
C          C       0.05020   0.26479   0.24994   0.44353
C          C       0.26671  -0.00110   0.02711   0.15446
C          C      -0.00081   0.64236   0.58280   0.50013
C          C       0.35676   0.00021   0.41898   0.50113
C          C       0.50528   0.68373   0.61319   0.50861
C          C       0.64329   0.64233   0.41944   0.50116
C          C       0.04798   0.20718   0.88803   0.49765
C          C       0.04941   0.84130   0.38539   0.49152
C          C       0.79248   0.95159   0.11417   0.49532
C          C      -0.00103   0.26580   0.47506   0.15563
C          C       0.49491   0.31605   0.11176   0.50642
C          C       0.21458   0.26332   0.75046   0.44634
C          C       0.16152   0.56619   0.07533   0.13150
C          C       0.00039   0.35783   0.08116   0.49930
C          C       0.16245   0.59617   0.57966   0.12012
C          C       0.83720   0.40323   0.42211   0.12027
C          C       0.83699   0.40320   0.07792   0.11979
C          C       0.64282   0.64184   0.08254   0.50145
C          C       0.15928   0.20737   0.38939   0.49621
C          C       0.27724   0.22942   0.75052   0.44557
C          C       0.68316   0.50520   0.88797   0.50941
C          C       0.20731   0.15827   0.11224   0.49472
C          C       0.59481   0.43256   0.07619   0.13236
C          C       0.82077   0.31723   0.88708   0.50376
C          C       0.35706   0.35838   0.91861   0.50068
C          C       0.15862   0.95202   0.61520   0.49450
C          C       0.31719   0.82103   0.61253   0.50231
C          C       0.73348   0.00064   0.52654   0.15400
C          C       0.16311   0.56682   0.42491   0.13050
C          C       0.43329   0.83749   0.92449   0.12802
C          C       0.26678   0.26633   0.52662   0.15580
C          C       0.31605   0.49535   0.11206   0.50809
C          C       0.59639   0.16213   0.57923   0.11906
C          C       0.40528   0.56765   0.92313   0.13210
C          C       0.43441   0.59635   0.42293   0.12053
C          C       0.64231  -0.00066   0.58305   0.49795
C          C       0.00109   0.73409   0.52640   0.15695
C          C       0.95041   0.15848   0.61529   0.49154
C          C      -0.00098   0.64249   0.91786   0.49928
C          C       0.83710   0.43303   0.92317   0.13057
C          C       0.31736   0.49528   0.38891   0.50818
C          C       0.79215   0.84100   0.88760   0.49405
C          C       0.82090   0.50429   0.38921   0.50590
C          C       0.35803   0.00047   0.08348   0.49746
C          C      -0.00082   0.26616   0.02492   0.15649
C          C       0.49556   0.17779   0.88827   0.50013
C          C       0.17881   0.68207   0.38843   0.50286
C          C       0.04754   0.77407   0.75031   0.44551
C          C       0.84038   0.79208   0.88766   0.49691
C          C       0.84049   0.79204   0.61405   0.49703
C          C       0.49642   0.17959   0.61244   0.50287
C          C       0.79207   0.84078   0.61402   0.49650
C          C       0.83818   0.43321   0.57701   0.13154
C          C       0.95039   0.15871   0.88560   0.49174
C          C       0.84173   0.04975   0.11427   0.49181
C          C       0.00051   0.73393   0.97447   0.15563
C          C       0.64288  -0.00098   0.91902   0.49972
C          C       0.35726   0.35796   0.58308   0.50002
C          C       0.50330   0.82030   0.11272   0.50452
C          C       0.40554   0.56743   0.57722   0.13384
C          C       0.59642   0.16213   0.92169   0.11770
C          C       0.43334   0.83766   0.57741   0.13007
C          C       0.73501   0.95113   0.75049   0.44410
C          C       0.78394   0.73480   0.25050   0.44303
C          C       0.59569   0.43284   0.42434   0.13188
C          C       0.50395   0.82154   0.38814   0.50299
C          C       0.26726   0.26625   0.97514   0.15643
C          C       0.73418   0.00066   0.97552   0.15469
C          C       0.31795   0.82182   0.88882   0.49893
C          C       0.26562  -0.00083   0.47545   0.15615
C          C       0.94988   0.73453   0.75035   0.44255
C          C       0.15641   0.95102   0.88873   0.49291
C          C       0.23002   0.95169   0.25047   0.44596
C          C       0.82175   0.31735   0.61303   0.50471
C          C       0.73304   0.73413   0.02631   0.15713
C          C       0.95190   0.79311   0.38876   0.49742
C          C       0.84154   0.04834   0.38804   0.49340
C          C       0.68417   0.50519   0.61344   0.50935
C          C       0.82078   0.50413   0.11130   0.50510
C          C       0.72445   0.77246   0.25047   0.44573
C          C       0.16241   0.59626   0.92024   0.12021
C          C       0.17781   0.68214   0.11124   0.50267
C          C       0.73383   0.73443   0.47562   0.15760
C          C       0.15916   0.20742   0.11145   0.49610
N          N       0.21464   0.45230   0.63544  -0.64725
N          N       0.38528   0.38659   0.53151  -0.31092
N          N       0.71682   0.71724   0.08135  -0.43815
N          N       0.67530   0.67419   0.50671  -0.19452
N          N       0.35265   0.89237   0.91890  -0.27503
N          N       0.24060   0.78680   0.63910  -0.65831
N          N       0.63563   0.41832   0.61056  -0.45622
N          N       0.45896   0.35179   0.08312  -0.27962
N          N       0.78291   0.41730   0.10959  -0.45557
N          N       0.45243   0.21221   0.86330  -0.66053
N          N       0.28287  -0.00123   0.08218  -0.43909
N          N       0.42726   0.52492   0.06235  -0.17731
N          N       0.41897   0.63482   0.89022  -0.45668
N          N       0.89250   0.53958   0.08247  -0.28059
N          N       0.32571   0.00105   0.50637  -0.18782
N          N       0.10829   0.64755   0.41843  -0.27824
N          N       0.09676   0.52449   0.93652  -0.17693
N          N       0.71772   0.00014   0.92036  -0.44109
N          N       0.58175   0.36559   0.39140  -0.45531
N          N       0.00131   0.38602   0.47050  -0.31122
N          N       0.63308   0.21573   0.11097  -0.45381
N          N       0.90189   0.42511   0.55985  -0.16800
N          N       0.90115   0.42526   0.93998  -0.16905
N          N       0.71740   0.00093   0.58167  -0.44050
N          N       0.09693   0.52442   0.56322  -0.17687
N          N       0.39771   0.00465   0.37019  -0.65831
N          N       0.57424   0.09859   0.44174  -0.16943
N          N       0.32688   0.00084   0.99619  -0.18626
N          N       0.41878   0.63488   0.60971  -0.45726
N          N       0.21231   0.75870   0.13809  -0.66021
N          N       0.09912   0.57464   0.44197  -0.16970
N          N       0.45242   0.23940   0.36357  -0.64624
N          N      -0.00095   0.67379   0.00526  -0.18770
N          N       0.36451   0.58228   0.10959  -0.45626
N          N       0.45392   0.21443   0.63774  -0.65954
N          N       0.10773   0.64795   0.08090  -0.27653
N          N       0.63434   0.41835   0.89051  -0.45620
N          N       0.24143   0.78781   0.86210  -0.65822
N          N       0.52492   0.09730   0.93923  -0.17280
N          N      -0.00066   0.28282   0.07999  -0.43941
N          N       0.00504   0.39909   0.12993  -0.65620
N          N       0.67408   0.67417   0.99530  -0.19383
N          N       0.61463   0.61372   0.03091  -0.31046
N          N       0.53920   0.89237   0.41800  -0.27591
N          N       0.38502   0.38704   0.97019  -0.30875
N          N       0.21484   0.45251   0.86436  -0.64530
N          N      -0.00171   0.61382   0.96936  -0.30966
N          N       0.54131   0.64771   0.58475  -0.28015
N          N       0.60130   0.99478   0.63191  -0.65722
N          N      -0.00046   0.28261   0.41999  -0.43914
N          N       0.45968   0.35195   0.41857  -0.28021
N          N       0.75864   0.21217   0.36197  -0.65821
N          N       0.23804   0.45206   0.13594  -0.64846
N          N       0.54573   0.78540   0.13785  -0.65604
N          N       0.52451   0.09814   0.56146  -0.17349
N          N       0.60654   0.59995   0.13111  -0.65680
N          N       0.64859   0.10874   0.08252  -0.27826
N          N       0.76216   0.54809   0.63717  -0.64655
N          N       0.21290   0.75847   0.36144  -0.65990
N          N       0.61456  -0.00128   0.97057  -0.31168
N          N       0.35142   0.89122   0.58214  -0.27815
N          N       0.61572   0.61380   0.47109  -0.31001
N          N       0.39887   0.00497   0.13233  -0.65845
N          N       0.10696   0.45980   0.58413  -0.28054
N          N       0.78337   0.36619   0.89003  -0.45444
N          N       0.90212   0.47495   0.06099  -0.17790
N          N       0.99427   0.60133   0.86899  -0.65765
N          N       0.32569   0.32653   0.49574  -0.18995
N          N       0.67435  -0.00050   0.00639  -0.18605
N          N       0.57288   0.47606   0.56383  -0.17903
N          N       0.23961   0.45233   0.36471  -0.64862
N          N       0.00033   0.67431   0.49549  -0.18932
N          N       0.89234   0.35190   0.58311  -0.27687
N          N       0.47537   0.90175   0.06170  -0.17310
N          N       0.78699   0.24061   0.63957  -0.66048
N          N       0.39370   0.39887   0.63199  -0.65816
N          N       0.54820   0.76086   0.86209  -0.64793
N          N       0.21721   0.58213   0.61053  -0.45466
N          N       0.00024   0.32569   0.50614  -0.19097
N          N       0.35407   0.45990   0.41719  -0.28022
N          N       0.28333   0.28291   0.92005  -0.43966
N          N       0.28173  -0.00133   0.42033  -0.44014
N          N       0.67331  -0.00117   0.49572  -0.18649
N          N       0.78607   0.54704   0.13565  -0.64833
N          N       0.52297   0.42542   0.06011  -0.17299
N          N       0.47487   0.90203   0.43953  -0.17499
N          N       0.58218   0.21572   0.88956  -0.45191
N          N       0.64612   0.54072   0.91590  -0.28114
N          N       0.46062   0.10860   0.58279  -0.27580
N          N       0.47736   0.57429   0.56141  -0.17123
N          N       0.21643   0.63332   0.39142  -0.45413
N          N       0.42492   0.90102   0.55955  -0.16788
N          N       0.57510   0.09878   0.05984  -0.16965
N          N       0.00029   0.71755   0.91936  -0.43950
N          N       0.00014   0.71731   0.58149  -0.44007
N          N       0.78306   0.41744   0.39063  -0.45636
N          N       0.38682   0.00164   0.03191  -0.31243
N          N       0.90231   0.47493   0.43915  -0.17788
N          N       0.41681   0.78355   0.11157  -0.45449
N          N       0.36668   0.78416   0.89116  -0.45322
N          N       0.36667   0.78417   0.61071  -0.45523
N          N       0.36616   0.58217   0.39131  -0.45696
N          N       0.89262   0.53965   0.41803  -0.28086
N          N       0.42563   0.90155   0.94193  -0.16890
N          N       0.09819   0.57461   0.05775  -0.16888
N          N       0.00564   0.39905   0.37014  -0.65620
N          N       0.42818   0.52465   0.43916  -0.17864
N          N       0.47684   0.57478   0.93980  -0.17195
N          N       0.46044   0.10656   0.91761  -0.27429
N          N       0.53925   0.89134   0.08312  -0.27848
N          N       0.64690   0.54073   0.58592  -0.28058
N          N       0.58295   0.21636   0.61131  -0.45244
N          N       0.64745   0.10790   0.41892  -0.27659
N          N       0.38547   0.00150   0.47055  -0.31235
N          N       0.45252   0.23865   0.13684  -0.64565
N          N       0.00108   0.38618   0.02953  -0.31081
N          N       0.52414   0.42549   0.44143  -0.17165
N          N       0.60173   0.99429   0.87029  -0.65777
N          N       0.63326   0.21575   0.39077  -0.45332
N          N       0.28317   0.28276   0.58168  -0.43853
N          N       0.41741   0.78412   0.38926  -0.45259
N          N       0.35319   0.46003   0.08416  -0.27984
N          N       0.00039   0.32601   0.99387  -0.19155
N          N       0.58143   0.36510   0.10861  -0.45456
N          N       0.21731   0.58224   0.88942  -0.45494
N          N       0.54757   0.76109   0.63822  -0.64733
N          N       0.39321   0.39922   0.86962  -0.65805
N          N       0.78624   0.24048   0.86050  -0.65945
N          N       0.21464   0.63272   0.10886  -0.45310
N          N       0.71714   0.71777   0.42058  -0.43778
N          N       0.89163   0.35203   0.91670  -0.27659
N          N       0.57191   0.47609   0.93789  -0.17935
N          N       0.99415   0.60092   0.63154  -0.65742
N          N       0.78477   0.36663   0.61037  -0.45320
N          N       0.10685   0.45989   0.91557  -0.27957
N          N       0.32591   0.32663   0.00601  -0.19048
N          N       0.61353  -0.00176   0.53155  -0.31361
N          N       0.75914   0.21357   0.13950  -0.65763
N          N       0.76119   0.54804   0.86424  -0.64616
N          N       0.78617   0.54733   0.36521  -0.64619
N          N       0.60662   0.60106   0.37073  -0.65754
N          N       0.54677   0.78719   0.36265  -0.66024
N          N       0.54117   0.64812   0.91661  -0.28125
N          N      -0.00078   0.61412   0.53124  -0.30963
Cl         Cl      0.34767  -0.00136   0.81611  -0.50676
Cl         Cl     -0.00118  -0.00067   0.75033  -0.67723
Cl         Cl      0.36590   0.36481   0.18773  -0.44226
Cl         Cl     -0.00158   0.36208   0.68740  -0.45628
Cl         Cl      0.63833   0.00045   0.18626  -0.48717
Cl         Cl      0.63194   0.63325   0.69003  -0.41413
Cl         Cl      0.00148   0.63747   0.18565  -0.47267
Cl         Cl     -0.00071  -0.00152   0.00007  -0.72814
Cl         Cl      0.36494   0.36218   0.31400  -0.44399
Cl         Cl      0.36067   0.00052   0.68592  -0.49806
Cl         Cl      0.00032   0.63909   0.31490  -0.47521
Cl         Cl      0.63473   0.63539   0.81190  -0.41668
Cl         Cl      0.64459  -0.00020   0.31552  -0.49377
Cl         Cl      0.99809   0.36179   0.81279  -0.45589
Cl         Cl     -0.00064  -0.00020   0.50166  -0.72762
Cl         Cl     -0.00075   0.00073   0.25016  -0.67766
O          O       0.27920   0.08508   0.29765  -0.48342
O          O       0.70026   0.78343   0.29754  -0.50219
O          O       0.28413   0.19714   0.10036  -0.47559
O          O       0.83588   0.91641   0.37205  -0.57398
O          O       0.71660   0.91412   0.10029  -0.47535
O          O       0.71490   0.80070   0.60290  -0.47773
O          O       0.91622   0.08099   0.87059  -0.56606
O          O       0.08372   0.91879   0.13062  -0.56555
O          O       0.19209   0.91220   0.90491  -0.47639
O          O       0.28384   0.19683   0.40255  -0.47620
O          O       0.08040   0.16325   0.37844  -0.57268
O          O       0.83671   0.91966   0.87591  -0.56849
O          O       0.16256   0.07971   0.12438  -0.57292
O          O       0.16214   0.07870   0.37990  -0.57645
O          O       0.19268   0.27767   0.79725  -0.48311
O          O       0.19245   0.27735   0.70357  -0.48262
O          O       0.83663   0.91980   0.62456  -0.56891
O          O       0.19646   0.91445   0.60070  -0.47433
O          O       0.91625   0.08093   0.63048  -0.56442
O          O       0.70181   0.78507   0.20325  -0.50364
O          O       0.21987   0.91634   0.29742  -0.50528
O          O       0.91952   0.08316   0.37391  -0.57302
O          O       0.71984   0.91469   0.70361  -0.48320
O          O       0.91464   0.71694   0.40264  -0.47600
O          O       0.80373   0.71830   0.20359  -0.48302
O          O       0.08311   0.78644   0.79733  -0.49854
O          O       0.91417   0.71641   0.10015  -0.47539
O          O       0.29969   0.21676   0.79770  -0.50218
O          O       0.08519   0.28379   0.60047  -0.47574
O          O       0.80015   0.71471   0.60289  -0.47554
O          O       0.28304   0.08829   0.60039  -0.47552
O          O       0.91250   0.19664   0.89934  -0.47523
O          O       0.27996   0.08558   0.20398  -0.48157
O          O       0.78273   0.08369   0.70322  -0.50344
O          O       0.08248   0.16260   0.87879  -0.57439
O          O       0.91366   0.71847   0.79726  -0.48523
O          O       0.80389   0.08751   0.10032  -0.47508
O          O       0.16459   0.08407   0.63118  -0.56977
O          O       0.91905   0.83631   0.87656  -0.56812
O          O       0.07954   0.91749   0.87214  -0.57474
O          O       0.80379   0.08585   0.40279  -0.47559
O          O       0.08637   0.28039   0.20294  -0.48521
O          O       0.91973   0.08427   0.12820  -0.56987
O          O       0.08709   0.80369   0.10007  -0.47531
O          O       0.71704   0.91177   0.40240  -0.47725
O          O       0.91719   0.21295   0.29720  -0.50223
O          O       0.08018   0.16326   0.12190  -0.57250
O          O       0.83575   0.91705   0.12803  -0.57308
O          O       0.19952   0.28468   0.10010  -0.47472
O          O       0.91751   0.21637   0.20296  -0.50390
O          O       0.08045   0.91729   0.62880  -0.57315
O          O       0.91936   0.83649   0.62460  -0.56921
O          O       0.08642   0.28070   0.29688  -0.48528
O          O       0.16379   0.08395   0.87347  -0.57176
O          O       0.91751   0.83727   0.12466  -0.57732
O          O       0.71535   0.80167   0.89974  -0.47668
O          O       0.08257   0.16218   0.62102  -0.57742
O          O       0.78369   0.08424   0.79750  -0.50298
O          O       0.80492   0.71981   0.29743  -0.48248
O          O       0.08339   0.91841   0.36902  -0.56434
O          O       0.91256   0.19680   0.60261  -0.47565
O          O       0.28103   0.08678   0.90514  -0.47390
O          O       0.19982   0.28487   0.39989  -0.47419
O          O       0.80026   0.71498   0.89956  -0.47609
O          O       0.08536   0.28418   0.89994  -0.47522
O          O       0.30334   0.22095   0.70341  -0.50600
O          O       0.08302   0.78675   0.70313  -0.49982
O          O       0.91737   0.83734   0.37807  -0.57871
O          O       0.71969   0.91477   0.79732  -0.48277
O          O       0.91362   0.71807   0.70341  -0.48628
O          O       0.21879   0.91688   0.20311  -0.50534
O          O       0.08741   0.80382   0.39976  -0.47596

