data_crystal

_audit_creation_method 'AiiDA-DDEC plugin'

_cell_length_a        19.58645
_cell_length_b        19.61362
_cell_length_c        35.56547

_cell_angle_alpha     90.00408
_cell_angle_beta     89.92302
_cell_angle_gamma     120.05997

_symmetry_space_group_name_Hall 'P 1'
_symmetry_space_group_name_H-M  'P 1'

loop_
_symmetry_equiv_pos_as_xyz
 'x,y,z'

loop_
_atom_site_label
_atom_site_type_symbol
_atom_site_fract_x
_atom_site_fract_y
_atom_site_fract_z
_atom_site_charge
Zn         Zn      0.95920   0.47852   0.96672   0.81505
Zn         Zn      0.51914   0.04062   0.96673   0.81450
Zn         Zn      0.52161   0.48095   0.96650   0.81371
Zn         Zn      0.04096   0.51922   0.46742   0.81141
Zn         Zn      0.48040   0.95922   0.46743   0.81119
Zn         Zn      0.47854   0.51913   0.46734   0.81133
Zn         Zn      0.47998   0.52110   0.03294   0.81889
Zn         Zn      0.47829   0.95938   0.03326   0.81397
Zn         Zn      0.04071   0.51910   0.03326   0.81480
Zn         Zn      0.51966   0.47881   0.53267   0.81074
Zn         Zn      0.52137   0.04056   0.53313   0.81241
Zn         Zn      0.95909   0.47843   0.53257   0.81155
Cr         Cr      0.56203   0.28102   0.74967   1.45243
Cr         Cr      0.71901   0.43758   0.74964   1.44677
Cr         Cr      0.71934   0.28150   0.74970   1.44937
Cr         Cr      0.43811   0.71917   0.25035   1.44843
Cr         Cr      0.28115   0.56232   0.25030   1.44960
Cr         Cr      0.28124   0.71901   0.25035   1.45064
H          H       0.70629   0.63449   0.08382   0.11629
H          H       0.08771   0.64616   0.41139   0.11572
H          H       0.78356   0.74896   0.11521   0.09955
H          H       0.31485   0.45865   0.15459   0.13785
H          H       0.92781   0.28847   0.08485   0.13470
H          H       0.55924   0.91210   0.41112   0.11843
H          H       0.14356   0.68517   0.15444   0.13618
H          H       0.74433   0.07838   0.14662   0.10139
H          H       0.07726   0.83335   0.65820   0.11362
H          H       0.36058   0.07317   0.08495   0.13504
H          H       0.35255   0.44007   0.41080   0.11786
H          H       0.54153   0.85626   0.15427   0.13339
H          H       0.33389   0.25622   0.14657   0.10048
H          H       0.28856   0.35977   0.58452   0.13561
H          H       0.91117   0.35245   0.91043   0.11835
H          H       0.68566   0.54171   0.65372   0.13215
H          H       0.07909   0.33368   0.64644   0.10038
H          H       0.83344   0.75600   0.15855   0.11244
H          H       0.07091   0.70565   0.58329   0.11613
H          H       0.44043   0.08805   0.91038   0.11828
H          H       0.03312   0.78232   0.61527   0.10078
H          H       0.85678   0.31474   0.65391   0.13456
H          H       0.63954   0.92759   0.58438   0.13512
H          H       0.64743   0.55947   0.90999   0.11788
H          H       0.45842   0.14357   0.65405   0.13629
H          H       0.66550   0.74479   0.64628   0.10119
H          H       0.07177   0.35972   0.91502   0.13232
H          H       0.44090   0.35299   0.58886   0.12465
H          H       0.85555   0.54115   0.84557   0.13414
H          H       0.25560   0.33358   0.85326   0.10140
H          H       0.92281   0.75612   0.34178   0.11285
H          H       0.63960   0.71194   0.91520   0.13495
H          H       0.64741   0.08770   0.58923   0.11776
H          H       0.45831   0.31440   0.84553   0.13454
H          H       0.66600   0.92179   0.85346   0.10214
H          H       0.28818   0.92794   0.91511   0.13487
H          H       0.91229   0.55866   0.58855   0.11658
H          H       0.68556   0.14448   0.84540   0.13431
H          H       0.07814   0.74437   0.85341   0.10061
H          H       0.92905   0.63493   0.41666   0.11633
H          H       0.55911   0.64794   0.08925   0.11580
H          H       0.96677   0.74918   0.38473   0.10053
H          H       0.14351   0.45826   0.34586   0.13440
H          H       0.36072   0.28832   0.41572   0.13506
H          H       0.35195   0.91149   0.08994   0.12509
H          H       0.54197   0.68532   0.34633   0.13633
H          H       0.33468   0.07958   0.35381   0.10137
H          H       0.71133   0.07140   0.41576   0.13553
H          H       0.08881   0.44092   0.08977   0.11773
H          H       0.31446   0.85628   0.34641   0.13348
H          H       0.92083   0.25466   0.35357   0.10094
H          H       0.24404   0.07616   0.34172   0.11231
H          H       0.29510   0.36557   0.91599   0.11688
H          H       0.91417   0.34920   0.58814   0.11618
H          H       0.21810   0.25030   0.88438   0.10069
H          H       0.67998   0.53349   0.84466   0.13521
H          H       0.07052   0.70465   0.91604   0.11930
H          H       0.43571   0.08604   0.58840   0.12213
H          H       0.03200   0.78153   0.88449   0.09996
H          H       0.85338   0.32016   0.84501   0.13582
H          H       0.92410   0.16750   0.34142   0.11332
H          H       0.63445   0.92953   0.91630   0.11926
H          H       0.65126   0.56420   0.58793   0.11527
H          H       0.74931   0.96762   0.88456   0.10034
H          H       0.46620   0.14636   0.84502   0.13620
H          H       0.75643   0.92479   0.84121   0.11289
H          H       0.71058   0.63907   0.41650   0.13525
H          H       0.08686   0.65050   0.08870   0.11884
H          H       0.31979   0.46656   0.34569   0.13472
H          H       0.91941   0.66572   0.35387   0.09966
H          H       0.16796   0.24332   0.84114   0.11302
H          H       0.92930   0.29464   0.41652   0.11822
H          H       0.56339   0.91268   0.08833   0.11565
H          H       0.96750   0.21800   0.38459   0.10126
H          H       0.14671   0.67974   0.34602   0.13412
H          H       0.07531   0.83176   0.84122   0.11298
H          H       0.36587   0.07072   0.41692   0.11908
H          H       0.34908   0.43616   0.08878   0.11675
H          H       0.25101   0.03241   0.38480   0.09942
H          H       0.53341   0.85344   0.34589   0.13596
H          H       0.92911   0.63904   0.08422   0.13473
H          H       0.56430   0.65022   0.41194   0.11873
H          H       0.14714   0.46701   0.15506   0.13510
H          H       0.74585   0.66582   0.14634   0.10099
H          H       0.07516   0.24298   0.65866   0.11274
H          H       0.36576   0.29586   0.08297   0.11588
H          H       0.34905   0.91315   0.41222   0.11538
H          H       0.25051   0.21870   0.11547   0.10099
H          H       0.53343   0.68059   0.15462   0.13437
H          H       0.75618   0.83205   0.65833   0.11138
H          H       0.70479   0.07053   0.08400   0.11871
H          H       0.08608   0.43496   0.41165   0.11652
H          H       0.78177   0.03244   0.11556   0.10072
H          H       0.31983   0.85330   0.15528   0.13627
H          H       0.83188   0.07568   0.15881   0.11339
H          H       0.07039   0.36467   0.58352   0.11774
H          H       0.43609   0.34892   0.91140   0.11935
H          H       0.03203   0.25028   0.61546   0.10196
H          H       0.85338   0.53308   0.65396   0.13349
H          H       0.63433   0.70477   0.58307   0.11691
H          H       0.65121   0.08779   0.91126   0.11522
H          H       0.74907   0.78126   0.61524   0.09938
H          H       0.46641   0.31990   0.65409   0.13609
H          H       0.24367   0.16844   0.15866   0.11304
H          H       0.28930   0.92841   0.58344   0.13502
H          H       0.91170   0.56335   0.91150   0.11594
H          H       0.68048   0.14691   0.65440   0.13525
H          H       0.08044   0.74619   0.64613   0.10033
H          H       0.24219   0.48558   0.00202   0.12941
H          H       0.24327   0.75750   0.00214   0.12984
H          H       0.51431   0.75672   0.00247   0.12945
H          H       0.75672   0.51365   0.50298   0.13002
H          H       0.75632   0.24179   0.50270   0.13064
H          H       0.48627   0.24388   0.50279   0.13003
H          H       0.75812   0.51474   0.99727   0.12993
H          H       0.48530   0.24172   0.99699   0.12926
H          H       0.75721   0.24314   0.99786   0.12998
H          H       0.24403   0.48556   0.49767   0.13062
H          H       0.51368   0.75747   0.49737   0.13057
H          H       0.24322   0.75683   0.49695   0.12997
C          C       0.90013   0.38785   0.60423   0.09661
C          C       0.20174   0.28248   0.86434  -0.18561
C          C       0.42587   0.15167   0.03945  -0.01461
C          C       0.09665   0.45138   0.97598   0.58901
C          C       0.63074   0.13231   0.85889  -0.14731
C          C       0.61954   0.74664   0.57117  -0.23967
C          C       0.48851   0.10027   0.60445   0.09707
C          C       0.08072   0.79805   0.86446  -0.18444
C          C       0.72511   0.57299   0.03902  -0.01023
C          C       0.35489   0.90293   0.97597   0.59098
C          C       0.50103   0.36921   0.85890  -0.14737
C          C       0.12717   0.37954   0.57157  -0.23958
C          C       0.61247   0.51159   0.60410   0.09656
C          C       0.71717   0.91919   0.86446  -0.18584
C          C       0.84827   0.27445   0.03974  -0.01428
C          C       0.54804   0.64527   0.97610   0.58967
C          C       0.86767   0.49858   0.85903  -0.14723
C          C       0.25038   0.87162   0.57066  -0.20634
C          C       0.10096   0.61197   0.10481   0.09933
C          C       0.57391   0.84826   0.53927  -0.01276
C          C       0.90160   0.54568   0.47750   0.58962
C          C       0.36912   0.86805   0.35984  -0.14914
C          C       0.38051   0.25394   0.07105  -0.23767
C          C       0.51095   0.89896   0.10464   0.09695
C          C       0.91866   0.20120   0.36465  -0.18635
C          C       0.27465   0.42545   0.53961  -0.01501
C          C       0.64497   0.09688   0.47674   0.58866
C          C       0.49896   0.63058   0.35971  -0.14404
C          C       0.87234   0.62116   0.07136  -0.20578
C          C       0.38796   0.48880   0.10485   0.09650
C          C       0.28314   0.08144   0.36494  -0.18479
C          C       0.15172   0.72412   0.53863  -0.01076
C          C       0.45251   0.35494   0.47656   0.58996
C          C       0.13149   0.50076   0.35946  -0.14630
C          C       0.74657   0.12711   0.07189  -0.24172
C          C       0.51152   0.61170   0.39584   0.09988
C          C       0.27430   0.84852   0.96022  -0.01468
C          C       0.64487   0.54640   0.02287   0.59072
C          C       0.49872   0.86818   0.14090  -0.14877
C          C       0.87261   0.25269   0.42853  -0.24036
C          C       0.38771   0.89923   0.39601   0.09731
C          C       0.28288   0.20246   0.13544  -0.18570
C          C       0.15109   0.42531   0.96017  -0.01196
C          C       0.45213   0.09721   0.02395   0.59070
C          C       0.13195   0.63059   0.14103  -0.14350
C          C       0.74945   0.62113   0.42929  -0.20624
C          C       0.10008   0.48768   0.39562   0.09664
C          C       0.79818   0.08106   0.13557  -0.18747
C          C       0.57434   0.72593   0.96046  -0.01439
C          C       0.90241   0.35519   0.02402   0.59073
C          C       0.36960   0.50144   0.14109  -0.14850
C          C       0.38068   0.12736   0.42887  -0.24122
C          C       0.48856   0.38781   0.89511   0.09519
C          C       0.08090   0.28216   0.63541  -0.18574
C          C       0.72544   0.15087   0.46082  -0.01302
C          C       0.35526   0.45213   0.52386   0.59056
C          C       0.50128   0.13179   0.64056  -0.14355
C          C       0.12710   0.74647   0.92812  -0.24196
C          C       0.61226   0.10135   0.89514   0.09706
C          C       0.71701   0.79819   0.63513  -0.18433
C          C       0.84824   0.57251   0.46131  -0.00989
C          C       0.54738   0.90233   0.52365   0.58903
C          C       0.86871   0.36933   0.64039  -0.14632
C          C       0.25325   0.38032   0.92804  -0.23909
C          C       0.89833   0.51099   0.89530   0.09756
C          C       0.42617   0.27449   0.46084  -0.01404
C          C       0.09837   0.64392   0.52246   0.58910
C          C       0.63098   0.49888   0.64026  -0.14780
C          C       0.61972   0.87297   0.92832  -0.24119
C          C       0.10135   0.60694   0.39554   0.09599
C          C       0.79985   0.71685   0.13532  -0.18526
C          C       0.57248   0.84841   0.96081  -0.00793
C          C       0.90265   0.54682   0.02313   0.58884
C          C       0.37455   0.86642   0.14143  -0.14174
C          C       0.37878   0.24979   0.42872  -0.20671
C          C       0.50601   0.89823   0.39551   0.09712
C          C       0.27570   0.42745   0.96051  -0.00856
C          C       0.64367   0.09815   0.02316   0.58706
C          C       0.49191   0.62567   0.14100  -0.14634
C          C       0.87241   0.61979   0.42886  -0.24001
C          C       0.39202   0.49347   0.39530   0.09538
C          C       0.15166   0.72397   0.96060  -0.00745
C          C       0.45405   0.35564   0.02160   0.58953
C          C       0.13399   0.50852   0.14129  -0.14517
C          C       0.75003   0.12814   0.42864  -0.20628
C          C       0.89762   0.39197   0.89482   0.09730
C          C       0.42790   0.15204   0.46132  -0.00836
C          C       0.09891   0.45349   0.52257   0.58942
C          C       0.62565   0.13380   0.64073  -0.14499
C          C       0.62161   0.75054   0.92822  -0.20758
C          C       0.49372   0.10190   0.89476   0.09813
C          C       0.08241   0.79949   0.63497  -0.18692
C          C       0.72530   0.57368   0.46143  -0.01287
C          C       0.35507   0.90174   0.52239   0.58942
C          C       0.50844   0.37472   0.64048  -0.14217
C          C       0.12852   0.37807   0.92799  -0.20465
C          C       0.60788   0.50625   0.89444   0.09674
C          C       0.84801   0.27508   0.46107  -0.01089
C          C       0.54537   0.64404   0.52242   0.58644
C          C       0.86669   0.49148   0.64036  -0.14665
C          C       0.24966   0.87117   0.92806  -0.20696
C          C       0.49408   0.39229   0.60453   0.09234
C          C       0.72396   0.15156   0.03941  -0.00816
C          C       0.35601   0.45468   0.97678   0.58937
C          C       0.50802   0.13352   0.85873  -0.14301
C          C       0.12754   0.74720   0.57109  -0.23865
C          C       0.60805   0.10158   0.60485   0.09579
C          C       0.84917   0.57398   0.03914  -0.01452
C          C       0.54531   0.90171   0.97685   0.58641
C          C       0.86630   0.37478   0.85877  -0.14323
C          C       0.24985   0.37781   0.57167  -0.20605
C          C       0.89874   0.50582   0.60440   0.09508
C          C       0.42721   0.27576   0.03832  -0.01098
C          C       0.09838   0.64357   0.97678   0.58829
C          C       0.62521   0.49181   0.85846  -0.14402
C          C       0.62143   0.87099   0.57136  -0.20775
C          C       0.50610   0.60823   0.10499   0.09391
C          C       0.91749   0.71709   0.36502  -0.18545
C          C       0.27456   0.84830   0.53853  -0.01288
C          C       0.64484   0.54655   0.47767   0.58788
C          C       0.49153   0.86631   0.35956  -0.14251
C          C       0.87107   0.24988   0.07189  -0.20598
C          C       0.39164   0.89792   0.10539   0.09156
C          C       0.15196   0.42677   0.53911  -0.01025
C          C       0.45476   0.09874   0.47760   0.58822
C          C       0.13340   0.62482   0.35959  -0.14683
C          C       0.74797   0.61969   0.07162  -0.23958
C          C       0.10236   0.49406   0.10530   0.09577
C          C       0.57225   0.72412   0.53874  -0.00816
C          C       0.90117   0.35494   0.47746   0.58854
C          C       0.37460   0.50822   0.35940  -0.14396
C          C       0.37872   0.12960   0.07171  -0.20558
C          C       0.82361   0.64532   0.41338   0.23880
C          C       0.82419   0.17849   0.41282   0.23948
C          C       0.35482   0.17561   0.41313   0.23826
C          C       0.17904   0.35446   0.91231   0.23778
C          C       0.17547   0.82069   0.91241   0.23937
C          C       0.64540   0.82460   0.91251   0.23942
C          C       0.17552   0.35373   0.58734   0.23909
C          C       0.64537   0.82075   0.58694   0.23834
C          C       0.17624   0.82157   0.58657   0.23848
C          C       0.82221   0.64504   0.08725   0.23833
C          C       0.35501   0.18015   0.08718   0.23815
C          C       0.82080   0.17566   0.08757   0.23821
C          C       0.14968   0.57832   0.15958  -0.00021
C          C       0.55032   0.77508   0.52239  -0.13427
C          C       0.42878   0.85076   0.15962   0.00011
C          C       0.22502   0.44893   0.52272  -0.13341
C          C       0.42217   0.57160   0.15954   0.00150
C          C       0.22455   0.77485   0.52197  -0.13499
C          C       0.85085   0.42171   0.65879   0.00206
C          C       0.44904   0.22448   0.02218  -0.13350
C          C       0.57154   0.14972   0.65899  -0.00016
C          C       0.77591   0.55102   0.02241  -0.13386
C          C       0.57844   0.42871   0.65880   0.00108
C          C       0.77500   0.22446   0.02293  -0.13485
C          C       0.57112   0.42181   0.84027   0.00133
C          C       0.77514   0.22408   0.47762  -0.13359
C          C       0.57805   0.14958   0.84037  -0.00022
C          C       0.77538   0.55031   0.47795  -0.13531
C          C       0.85057   0.42877   0.84041  -0.00027
C          C       0.44973   0.22489   0.47774  -0.13375
C          C       0.42874   0.57834   0.34118  -0.00055
C          C       0.22451   0.77519   0.97706  -0.13442
C          C       0.42156   0.85035   0.34126   0.00105
C          C       0.22446   0.44904   0.97697  -0.13590
C          C       0.14930   0.57101   0.34111   0.00194
C          C       0.55080   0.77564   0.97735  -0.13572
C          C       0.59168   0.40243   0.80328   0.59234
C          C       0.81119   0.40842   0.80330   0.59384
C          C       0.59731   0.18928   0.80330   0.59293
C          C       0.40839   0.59810   0.30421   0.59455
C          C       0.18947   0.59160   0.30414   0.59238
C          C       0.40202   0.81045   0.30423   0.59340
C          C       0.18928   0.59753   0.19666   0.59390
C          C       0.40311   0.59210   0.19666   0.59175
C          C       0.40850   0.81116   0.19670   0.59398
C          C       0.81082   0.40223   0.69581   0.59080
C          C       0.59800   0.40828   0.69581   0.59310
C          C       0.59195   0.18989   0.69592   0.59425
N          N       0.08699   0.54529   0.08727  -0.16836
N          N       0.45822   0.91313   0.08724  -0.16892
N          N       0.45473   0.54133   0.08714  -0.16941
N          N       0.91448   0.45457   0.58666  -0.16817
N          N       0.54109   0.08587   0.58701  -0.16810
N          N       0.54553   0.45911   0.58664  -0.16821
N          N       0.54117   0.45481   0.91248  -0.16914
N          N       0.54532   0.08693   0.91272  -0.16991
N          N       0.91266   0.45851   0.91283  -0.16973
N          N       0.45882   0.54471   0.41326  -0.16835
N          N       0.45464   0.91363   0.41345  -0.16756
N          N       0.08570   0.53996   0.41326  -0.16920
O          O       0.37028   0.48499   0.00956  -0.54270
O          O       0.55505   0.95933   0.95620  -0.56242
O          O       0.66333   0.44600   0.79235  -0.56978
O          O       0.11424   0.62894   0.00950  -0.54084
O          O       0.40427   0.44516   0.95627  -0.56277
O          O       0.78366   0.33702   0.79232  -0.57044
O          O       0.51491   0.88595   0.00963  -0.54131
O          O       0.04058   0.59562   0.95621  -0.56288
O          O       0.55335   0.21670   0.79231  -0.56864
O          O       0.63041   0.51584   0.51038  -0.54012
O          O       0.44492   0.04091   0.45710  -0.56404
O          O       0.33676   0.55481   0.29328  -0.57284
O          O       0.88527   0.36882   0.51034  -0.53676
O          O       0.59650   0.55581   0.45720  -0.56329
O          O       0.21796   0.66322   0.29330  -0.57325
O          O       0.48498   0.11447   0.51037  -0.54066
O          O       0.95908   0.40345   0.45705  -0.56292
O          O       0.44526   0.78209   0.29332  -0.57225
O          O       0.88663   0.51619   0.99041  -0.54216
O          O       0.59555   0.04036   0.04373  -0.56300
O          O       0.21675   0.55367   0.20769  -0.57080
O          O       0.48448   0.36994   0.98881  -0.54016
O          O       0.95993   0.55598   0.04382  -0.56349
O          O       0.44719   0.66346   0.20770  -0.56988
O          O       0.62930   0.11398   0.99038  -0.54028
O          O       0.44418   0.40380   0.04196  -0.56643
O          O       0.33699   0.78349   0.20774  -0.56984
O          O       0.11481   0.48292   0.48963  -0.53748
O          O       0.40338   0.95919   0.54292  -0.56420
O          O       0.78204   0.44514   0.70660  -0.57305
O          O       0.51521   0.62972   0.48963  -0.53805
O          O       0.04107   0.44440   0.54296  -0.56532
O          O       0.55478   0.33664   0.70666  -0.57211
O          O       0.36951   0.88562   0.48962  -0.54064
O          O       0.55503   0.59591   0.54288  -0.56351
O          O       0.66368   0.21860   0.70673  -0.57352
O          O       0.63121   0.51864   0.98956  -0.53910
O          O       0.44460   0.04169   0.04551  -0.56140
O          O       0.34260   0.53996   0.21514  -0.56393
O          O       0.88866   0.36961   0.99075  -0.54122
O          O       0.59601   0.55372   0.04395  -0.56377
O          O       0.19752   0.65779   0.21519  -0.56324
O          O       0.48025   0.11075   0.99065  -0.54128
O          O       0.95801   0.40340   0.04548  -0.55982
O          O       0.46070   0.80300   0.21514  -0.56509
O          O       0.36963   0.48115   0.49079  -0.53833
O          O       0.55544   0.95843   0.54486  -0.56084
O          O       0.65803   0.46051   0.71442  -0.56335
O          O       0.11434   0.62955   0.48967  -0.53867
O          O       0.40357   0.44413   0.54488  -0.56092
O          O       0.80350   0.34258   0.71452  -0.56251
O          O       0.51851   0.88810   0.49056  -0.53932
O          O       0.04046   0.59576   0.54298  -0.56397
O          O       0.53955   0.19745   0.71452  -0.56056
O          O       0.11016   0.47886   0.00936  -0.54151
O          O       0.40316   0.95876   0.95453  -0.56116
O          O       0.80305   0.46046   0.78475  -0.56520
O          O       0.52003   0.63079   0.00942  -0.54351
O          O       0.04113   0.44431   0.95452  -0.56083
O          O       0.53944   0.34225   0.78476  -0.56394
O          O       0.36919   0.88922   0.00925  -0.54086
O          O       0.55546   0.59718   0.95455  -0.56017
O          O       0.65782   0.19772   0.78481  -0.56341
O          O       0.88560   0.51539   0.51031  -0.54007
O          O       0.59648   0.04100   0.45548  -0.56000
O          O       0.19726   0.53936   0.28560  -0.56191
O          O       0.48127   0.36944   0.50967  -0.53918
O          O       0.95949   0.55535   0.45701  -0.56492
O          O       0.46072   0.65823   0.28564  -0.56226
O          O       0.63103   0.11114   0.50999  -0.53820
O          O       0.44439   0.40304   0.45535  -0.56135
O          O       0.34208   0.80280   0.28562  -0.56300
O          O       0.69405   0.84957   0.61789  -0.17964
O          O       0.15560   0.30510   0.61835  -0.17893
O          O       0.15679   0.85084   0.61750  -0.17858
O          O       0.30676   0.15161   0.11836  -0.17919
O          O       0.85113   0.69323   0.11838  -0.17894
O          O       0.84955   0.15583   0.11854  -0.17997
O          O       0.84388   0.14977   0.38174  -0.17863
O          O       0.84309   0.69410   0.38246  -0.17854
O          O       0.30608   0.15575   0.38222  -0.17987
O          O       0.15556   0.84932   0.88143  -0.18012
O          O       0.15043   0.30601   0.88130  -0.17901
O          O       0.69361   0.84433   0.88134  -0.18017
O          O       0.66662   0.33318   0.75019  -1.05089
O          O       0.33348   0.66678   0.24985  -1.05141

