data_crystal

_audit_creation_method 'AiiDA-DDEC plugin'

_cell_length_a        10.44663
_cell_length_b        23.89015
_cell_length_c        23.20933

_cell_angle_alpha     94.80769
_cell_angle_beta     102.97696
_cell_angle_gamma     89.88876

_symmetry_space_group_name_Hall 'P 1'
_symmetry_space_group_name_H-M  'P 1'

loop_
_symmetry_equiv_pos_as_xyz
 'x,y,z'

loop_
_atom_site_label
_atom_site_type_symbol
_atom_site_fract_x
_atom_site_fract_y
_atom_site_fract_z
_atom_site_charge
Ni         Ni      0.05827   0.07596   0.43040   0.75925
Ni         Ni      0.83981   0.93237   0.98077   0.77712
Ni         Ni      0.62840   0.42232   0.56953   0.75751
Ni         Ni      0.85463   0.56743   0.01904   0.77726
Ni         Ni      0.94165   0.92407   0.56961   0.75887
Ni         Ni      0.16018   0.06762   0.01923   0.77734
Ni         Ni      0.37160   0.57768   0.43047   0.75785
Ni         Ni      0.14537   0.43257   0.98096   0.77756
H          H       0.23713   0.12684   0.29742   0.11054
H          H       0.39506   0.15878   0.23914   0.11952
H          H       0.68034   0.04424   0.32255   0.11166
H          H       0.51782   0.00880   0.37742   0.12108
H          H       0.51228   0.03203   0.19162   0.11045
H          H       0.58648   0.97567   0.11014   0.11291
H          H       0.93292   0.07962   0.13908   0.11479
H          H       0.85708   0.13789   0.22099   0.11746
H          H       0.14578   0.20840   0.58658   0.11828
H          H       0.08932   0.26458   0.67453   0.11823
H          H       0.79571   0.13999   0.67892   0.13186
H          H       0.84773   0.08567   0.59081   0.13579
H          H       0.03261   0.14219   0.76057   0.11314
H          H       0.06565   0.10881   0.86194   0.12140
H          H       0.85482   0.24914   0.91828   0.12800
H          H       0.82311   0.28440   0.81675   0.12092
H          H       0.11212   0.16609   0.36078   0.10912
H          H       0.99037   0.23927   0.30212   0.12171
H          H       0.65657   0.20080   0.37512   0.14531
H          H       0.79508   0.12804   0.43045   0.11005
H          H       0.57651   0.49270   0.43790   0.11196
H          H       0.65449   0.42138   0.37108   0.14647
H          H       0.34647   0.47307   0.22752   0.14253
H          H       0.27712   0.54086   0.30294   0.09888
H          H       0.14419   0.17993   0.08960   0.09411
H          H       0.29983   0.25341   0.14688   0.12367
H          H       0.61599   0.15195   0.10438   0.14361
H          H       0.44551   0.08056   0.05161   0.10918
H          H       0.94622   0.55996   0.15252   0.08406
H          H       0.92487   0.49130   0.22495   0.14028
H          H       0.76360   0.37290   0.07417   0.14703
H          H       0.79786   0.44445   0.00968   0.09952
H          H       0.74254   0.31748   0.14443   0.09026
H          H       0.62332   0.37095   0.14644   0.09210
H          H       0.50048   0.27367   0.23447   0.08610
H          H       0.46369   0.31723   0.17403   0.09050
H          H       0.62497   0.34622   0.31020   0.08343
H          H       0.73604   0.39381   0.28952   0.09149
H          H       0.79558   0.25292   0.22166   0.08462
H          H       0.86650   0.31100   0.27258   0.08932
H          H       0.94272   0.37089   0.70180   0.11053
H          H       0.15974   0.33998   0.76060   0.11840
H          H       0.35876   0.45475   0.67652   0.11264
H          H       0.14021   0.48915   0.62120   0.11986
H          H       0.32058   0.46745   0.80746   0.11043
H          H       0.47441   0.52407   0.88920   0.11266
H          H       0.79434   0.42034   0.86145   0.11505
H          H       0.63846   0.36175   0.77933   0.11817
H          H       0.55610   0.28927   0.41196   0.11866
H          H       0.40902   0.23429   0.32411   0.11915
H          H       0.11452   0.36063   0.32301   0.13260
H          H       0.25754   0.41381   0.41072   0.13529
H          H       0.26923   0.35757   0.24050   0.11458
H          H       0.20553   0.39074   0.13890   0.12060
H          H       0.93507   0.25208   0.08138   0.12877
H          H       0.00063   0.21695   0.18308   0.11955
H          H       0.75270   0.33178   0.63852   0.11028
H          H       0.68983   0.25927   0.69789   0.12241
H          H       0.28318   0.29833   0.62545   0.14502
H          H       0.36595   0.37069   0.56955   0.10973
H          H       0.14247   0.00780   0.56323   0.11189
H          H       0.28367   0.07999   0.62996   0.14432
H          H       0.11426   0.02983   0.77265   0.14344
H          H       0.97330   0.96105   0.69731   0.09830
H          H       0.05908   0.32111   0.91035   0.09591
H          H       0.15966   0.24716   0.85435   0.12496
H          H       0.51763   0.34869   0.89757   0.14536
H          H       0.39702   0.42054   0.94885   0.10832
H          H       0.79330   0.93776   0.84715   0.08397
H          H       0.69688   0.00569   0.77432   0.13846
H          H       0.69059   0.12567   0.92455   0.14708
H          H       0.79206   0.05488   0.98936   0.09902
H          H       0.60253   0.18033   0.85522   0.08938
H          H       0.47788   0.12871   0.85401   0.09178
H          H       0.27205   0.22893   0.76804   0.08717
H          H       0.29300   0.18415   0.82732   0.09053
H          H       0.31541   0.15562   0.69057   0.08381
H          H       0.44303   0.10590   0.71105   0.09100
H          H       0.57780   0.24603   0.77829   0.08530
H          H       0.59432   0.18754   0.72699   0.09052
H          H       0.76287   0.87316   0.70259   0.11048
H          H       0.60493   0.84121   0.76086   0.11950
H          H       0.31965   0.95575   0.67744   0.11177
H          H       0.48217   0.99120   0.62258   0.12105
H          H       0.48772   0.96797   0.80838   0.11029
H          H       0.41351   0.02433   0.88986   0.11261
H          H       0.06707   0.92037   0.86091   0.11496
H          H       0.14292   0.86210   0.77901   0.11785
H          H       0.85421   0.79162   0.41344   0.11829
H          H       0.91067   0.73543   0.32550   0.11813
H          H       0.20428   0.86002   0.32110   0.13176
H          H       0.15225   0.91436   0.40918   0.13554
H          H       0.96739   0.85782   0.23944   0.11299
H          H       0.93433   0.89119   0.13806   0.12133
H          H       0.14516   0.75086   0.08172   0.12806
H          H       0.17690   0.71560   0.18326   0.12107
H          H       0.88787   0.83391   0.63921   0.10922
H          H       0.00962   0.76073   0.69787   0.12166
H          H       0.34342   0.79919   0.62487   0.14530
H          H       0.20492   0.87196   0.56954   0.10972
H          H       0.42349   0.50730   0.56210   0.11234
H          H       0.34550   0.57861   0.62891   0.14653
H          H       0.65352   0.52693   0.77248   0.14233
H          H       0.72287   0.45914   0.69706   0.09890
H          H       0.85581   0.82006   0.91040   0.09391
H          H       0.70017   0.74659   0.85312   0.12384
H          H       0.38401   0.84805   0.89562   0.14371
H          H       0.55450   0.91943   0.94839   0.10898
H          H       0.05377   0.44004   0.84747   0.08430
H          H       0.07511   0.50870   0.77504   0.14044
H          H       0.23638   0.62710   0.92583   0.14667
H          H       0.20214   0.55554   0.99031   0.09943
H          H       0.25744   0.68251   0.85556   0.09016
H          H       0.37667   0.62905   0.85355   0.09202
H          H       0.49952   0.72632   0.76553   0.08598
H          H       0.53629   0.68276   0.82596   0.09046
H          H       0.37502   0.65378   0.68979   0.08335
H          H       0.26395   0.60618   0.71047   0.09181
H          H       0.20441   0.74708   0.77833   0.08439
H          H       0.13349   0.68900   0.72741   0.08977
H          H       0.05727   0.62911   0.29820   0.11034
H          H       0.84025   0.66001   0.23940   0.11823
H          H       0.64123   0.54524   0.32348   0.11284
H          H       0.85979   0.51085   0.37879   0.12009
H          H       0.67942   0.53255   0.19254   0.11027
H          H       0.52558   0.47593   0.11080   0.11291
H          H       0.20566   0.57965   0.13854   0.11517
H          H       0.36153   0.63825   0.22067   0.11803
H          H       0.44390   0.71072   0.58804   0.11877
H          H       0.59098   0.76571   0.67589   0.11903
H          H       0.88547   0.63936   0.67699   0.13256
H          H       0.74245   0.58619   0.58927   0.13541
H          H       0.73076   0.64243   0.75950   0.11485
H          H       0.79446   0.60926   0.86110   0.12087
H          H       0.06493   0.74792   0.91862   0.12849
H          H      -0.00064   0.78305   0.81691   0.11935
H          H       0.24729   0.66822   0.36148   0.11040
H          H       0.31016   0.74073   0.30211   0.12232
H          H       0.71681   0.70167   0.37455   0.14499
H          H       0.63404   0.62930   0.43045   0.10963
H          H       0.85750   0.99221   0.43677   0.11178
H          H       0.71629   0.92002   0.37004   0.14447
H          H       0.88572   0.97018   0.22735   0.14344
H          H       0.02670   0.03895   0.30269   0.09801
H          H       0.94091   0.67888   0.08965   0.09583
H          H       0.84034   0.75284   0.14564   0.12479
H          H       0.48236   0.65131   0.10243   0.14543
H          H       0.60298   0.57945   0.05115   0.10870
H          H       0.20671   0.06223   0.15285   0.08381
H          H       0.30310   0.99431   0.22568   0.13837
H          H       0.30940   0.87432   0.07545   0.14739
H          H       0.20794   0.94512   0.01063   0.09920
H          H       0.39746   0.81966   0.14478   0.08968
H          H       0.52211   0.87128   0.14599   0.09161
H          H       0.72795   0.77107   0.23196   0.08718
H          H       0.70699   0.81584   0.17268   0.09042
H          H       0.68459   0.84438   0.30942   0.08364
H          H       0.55695   0.89409   0.28896   0.09076
H          H       0.42219   0.75396   0.22170   0.08566
H          H       0.40567   0.81246   0.27300   0.09047
C          C       0.27429   0.04708   0.37664   0.55295
C          C       0.36769   0.06550   0.34064  -0.03869
C          C       0.33346   0.10816   0.30214  -0.08940
C          C       0.42140   0.12680   0.27029  -0.21077
C          C       0.54584   0.10347   0.27899   0.24108
C          C       0.58222   0.06108   0.31704  -0.20308
C          C       0.49229   0.04164   0.34722  -0.08179
C          C       0.68031   0.08854   0.20993   0.26283
C          C       0.60458   0.04210   0.18047  -0.22381
C          C       0.64619   0.01068   0.13513  -0.06663
C          C       0.76399   0.02435   0.11977  -0.06428
C          C       0.84137   0.06982   0.15129  -0.08088
C          C       0.79986   0.10209   0.19629  -0.21420
C          C       0.80248   0.99243   0.06884   0.53432
C          C       0.00018   0.14420   0.58340  -0.04902
C          C       0.06906   0.19429   0.60716  -0.07858
C          C       0.03887   0.22517   0.65593  -0.20757
C          C       0.94035   0.20523   0.68113   0.24488
C          C       0.87094   0.15527   0.65817  -0.20015
C          C       0.90061   0.12484   0.60896  -0.06598
C          C       0.92436   0.21499   0.78279   0.24115
C          C       0.99247   0.16527   0.79461  -0.23854
C          C       0.01024   0.14655   0.85102  -0.07160
C          C       0.96016   0.17608   0.89577  -0.04471
C          C       0.89038   0.22539   0.88296  -0.08376
C          C       0.87292   0.24511   0.82665  -0.22899
C          C       0.98713   0.15441   0.95665   0.56383
C          C       0.01081   0.17518   0.36208   0.11308
C          C       0.94126   0.21594   0.32932  -0.27998
C          C       0.81074   0.22484   0.33273   0.29430
C          C       0.75736   0.19442   0.37117  -0.23435
C          C       0.83311   0.15391   0.40143   0.09835
C          C       0.52720   0.48624   0.39121   0.11637
C          C       0.57075   0.44651   0.35304  -0.26613
C          C       0.50453   0.44074   0.29310   0.28919
C          C       0.39737   0.47534   0.27401  -0.24500
C          C       0.35976   0.51322   0.31530   0.10582
C          C       0.24972   0.17442   0.09563   0.10911
C          C       0.33768   0.21589   0.12717  -0.26602
C          C       0.47212   0.20792   0.13088   0.28933
C          C       0.51236   0.15903   0.10239  -0.23681
C          C       0.41823   0.11940   0.07342   0.10429
C          C       0.90633   0.51798   0.13695   0.10044
C          C       0.89397   0.47984   0.17744  -0.24153
C          C       0.83423   0.42728   0.15584   0.29364
C          C       0.80041   0.41408   0.09437  -0.25899
C          C       0.81989   0.45450   0.05737   0.13140
C          C       0.70806   0.35042   0.17302  -0.03793
C          C       0.53831   0.29036   0.19870  -0.03068
C          C       0.64622   0.36795   0.27348  -0.04212
C          C       0.77604   0.28610   0.25407  -0.03324
C          C       0.03209   0.11287   0.53043   0.53362
C          C       0.66657   0.32423   0.22446   0.05958
C          C       0.89910   0.45017   0.62191   0.55325
C          C       0.02863   0.43223   0.65827  -0.03922
C          C       0.03390   0.38985   0.69713  -0.08937
C          C       0.15413   0.37183   0.72926  -0.21055
C          C       0.26920   0.39554   0.72049   0.24344
C          C       0.26658   0.43770   0.68212  -0.20820
C          C       0.14601   0.45651   0.65167  -0.07908
C          C       0.47180   0.41105   0.78987   0.26420
C          C       0.42411   0.45748   0.81896  -0.22243
C          C       0.50998   0.48906   0.86435  -0.06689
C          C       0.64321   0.47549   0.87999  -0.06641
C          C       0.69050   0.43002   0.84886  -0.07958
C          C       0.60510   0.39757   0.80383  -0.21562
C          C       0.73137   0.50751   0.93092   0.53512
C          C       0.41619   0.35438   0.41655  -0.04794
C          C       0.45895   0.30401   0.39199  -0.07983
C          C       0.37821   0.27370   0.34340  -0.20640
C          C       0.25455   0.29446   0.31930   0.24423
C          C       0.21027   0.34465   0.34309  -0.20010
C          C       0.29103   0.37454   0.39203  -0.06555
C          C       0.13712   0.28553   0.21765   0.24136
C          C       0.19542   0.33478   0.20613  -0.23953
C          C       0.15938   0.35339   0.14954  -0.07185
C          C       0.06515   0.32427   0.10430  -0.04520
C          C       0.00581   0.27553   0.11692  -0.08432
C          C       0.04215   0.25590   0.17337  -0.22559
C          C       0.03407   0.34577   0.04317   0.56511
C          C       0.65016   0.32303   0.63753   0.11515
C          C       0.61355   0.28260   0.67061  -0.28053
C          C       0.47972   0.27426   0.66756   0.29528
C          C       0.38776   0.30454   0.62904  -0.23588
C          C       0.43305   0.34478   0.59853   0.09908
C          C       0.13800   0.01469   0.60969   0.11602
C          C       0.21794   0.05483   0.64784  -0.26387
C          C       0.20901   0.06132   0.70745   0.28801
C          C       0.12058   0.02692   0.72635  -0.24477
C          C       0.04367   0.98856   0.68506   0.10695
C          C       0.15895   0.32643   0.90466   0.10895
C          C       0.21687   0.28470   0.87396  -0.26611
C          C       0.34816   0.29251   0.87103   0.28995
C          C       0.41579   0.34158   0.89917  -0.23713
C          C       0.34913   0.38149   0.92721   0.10488
C          C       0.76946   0.97995   0.86248   0.09832
C          C       0.71500   0.01767   0.82178  -0.23915
C          C       0.67739   0.07048   0.84324   0.29297
C          C       0.70702   0.08433   0.90460  -0.26091
C          C       0.76503   0.04432   0.94178   0.13186
C          C       0.53639   0.14830   0.82696  -0.03317
C          C       0.34465   0.21071   0.80311  -0.03108
C          C       0.37127   0.13309   0.72717  -0.04384
C          C       0.52411   0.21311   0.74619  -0.03472
C          C       0.50349   0.38496   0.46933   0.53375
C          C       0.44400   0.17576   0.77629   0.05759
C          C       0.72570   0.95292   0.62337   0.55301
C          C       0.63230   0.93450   0.65936  -0.03863
C          C       0.66653   0.89184   0.69786  -0.08931
C          C       0.57859   0.87320   0.72971  -0.21063
C          C       0.45415   0.89652   0.72101   0.24097
C          C       0.41777   0.93891   0.68296  -0.20301
C          C       0.50770   0.95836   0.65278  -0.08204
C          C       0.31969   0.91145   0.79007   0.26277
C          C       0.39542   0.95790   0.81952  -0.22389
C          C       0.35381   0.98931   0.86486  -0.06685
C          C       0.23601   0.97564   0.88023  -0.06434
C          C       0.15863   0.93018   0.84871  -0.08071
C          C       0.20013   0.89790   0.80371  -0.21422
C          C       0.19753   0.00756   0.93116   0.53462
C          C      -0.00021   0.85585   0.41661  -0.04978
C          C       0.93094   0.80574   0.39287  -0.07775
C          C       0.96113   0.77484   0.34410  -0.20710
C          C       0.05964   0.79478   0.31888   0.24492
C          C       0.12905   0.84474   0.34185  -0.20042
C          C       0.09937   0.87519   0.39105  -0.06601
C          C       0.07563   0.78501   0.21721   0.24080
C          C       0.00752   0.83473   0.20540  -0.23852
C          C       0.98974   0.85344   0.14898  -0.07191
C          C       0.03982   0.82391   0.10423  -0.04481
C          C       0.10961   0.77461   0.11705  -0.08352
C          C       0.12708   0.75489   0.17336  -0.22867
C          C       0.01285   0.84558   0.04335   0.56420
C          C       0.98918   0.82482   0.63791   0.11309
C          C       0.05873   0.78406   0.67067  -0.27959
C          C       0.18925   0.77516   0.66727   0.29435
C          C       0.24262   0.80557   0.62882  -0.23459
C          C       0.16687   0.84609   0.59856   0.09857
C          C       0.47279   0.51376   0.60879   0.11627
C          C       0.42924   0.55349   0.64696  -0.26629
C          C       0.49546   0.55925   0.70690   0.28927
C          C       0.60262   0.52465   0.72599  -0.24511
C          C       0.64023   0.48677   0.68470   0.10553
C          C       0.75028   0.82557   0.90437   0.10918
C          C       0.66231   0.78410   0.87283  -0.26572
C          C       0.52788   0.79208   0.86912   0.28919
C          C       0.48764   0.84097   0.89761  -0.23677
C          C       0.58177   0.88059   0.92658   0.10425
C          C       0.09366   0.48202   0.86305   0.10058
C          C       0.10602   0.52016   0.82255  -0.24123
C          C       0.16575   0.57271   0.84416   0.29322
C          C       0.19958   0.58592   0.90563  -0.25881
C          C       0.18010   0.54549   0.94263   0.13114
C          C       0.29192   0.64958   0.82698  -0.03807
C          C       0.46169   0.70963   0.80130  -0.03049
C          C       0.35377   0.63205   0.72652  -0.04193
C          C       0.22395   0.71390   0.74592  -0.03337
C          C       0.96770   0.88723   0.46954   0.53290
C          C       0.33342   0.67577   0.77553   0.05930
C          C       0.10089   0.54982   0.37809   0.55331
C          C       0.97136   0.56777   0.34173  -0.03927
C          C       0.96609   0.61014   0.30287  -0.08947
C          C       0.84587   0.62817   0.27074  -0.21047
C          C       0.73079   0.60445   0.27951   0.24345
C          C       0.73342   0.56230   0.31788  -0.20792
C          C       0.85399   0.54349   0.34832  -0.07931
C          C       0.52819   0.58894   0.21012   0.26420
C          C       0.57588   0.54252   0.18104  -0.22235
C          C       0.49002   0.51094   0.13565  -0.06694
C          C       0.35678   0.52451   0.12001  -0.06606
C          C       0.30950   0.56997   0.15114  -0.07971
C          C       0.39490   0.60243   0.19617  -0.21579
C          C       0.26862   0.49249   0.06908   0.53480
C          C       0.58381   0.64562   0.58345  -0.04785
C          C       0.54104   0.69598   0.60800  -0.07976
C          C       0.62178   0.72630   0.65660  -0.20679
C          C       0.74544   0.70554   0.68070   0.24444
C          C       0.78973   0.65535   0.65691  -0.20022
C          C       0.70896   0.62546   0.60797  -0.06536
C          C       0.86288   0.71446   0.78235   0.24133
C          C       0.80457   0.66521   0.79387  -0.23937
C          C       0.84061   0.64661   0.85045  -0.07170
C          C       0.93484   0.67573   0.89569  -0.04530
C          C       0.99418   0.72446   0.88308  -0.08424
C          C       0.95784   0.74410   0.82662  -0.22595
C          C       0.96592   0.65422   0.95683   0.56504
C          C       0.34983   0.67696   0.36247   0.11519
C          C       0.38644   0.71740   0.32939  -0.28040
C          C       0.52027   0.72574   0.33243   0.29528
C          C       0.61223   0.69546   0.37096  -0.23621
C          C       0.56694   0.65522   0.40146   0.09909
C          C       0.86196   0.98532   0.39031   0.11592
C          C       0.78203   0.94518   0.35216  -0.26394
C          C       0.79097   0.93868   0.29255   0.28818
C          C       0.87940   0.97309   0.27366  -0.24480
C          C       0.95632   0.01144   0.31494   0.10726
C          C       0.84105   0.67357   0.09534   0.10866
C          C       0.78312   0.71529   0.12604  -0.26644
C          C       0.65184   0.70748   0.12897   0.29004
C          C       0.58420   0.65841   0.10083  -0.23696
C          C       0.65086   0.61851   0.07279   0.10480
C          C       0.23054   0.02005   0.13751   0.09835
C          C       0.28499   0.98232   0.17822  -0.23940
C          C       0.32260   0.92951   0.15676   0.29318
C          C       0.29298   0.91567   0.09540  -0.26106
C          C       0.23497   0.95567   0.05821   0.13198
C          C       0.46360   0.85170   0.17303  -0.03291
C          C       0.65535   0.78929   0.19689  -0.03144
C          C       0.62872   0.86690   0.27283  -0.04346
C          C       0.47588   0.78688   0.25381  -0.03473
C          C       0.49651   0.61503   0.53067   0.53357
C          C       0.55599   0.82423   0.22371   0.05750
N          N       0.95759   0.14341   0.39629  -0.23483
N          N       0.28824   0.12642   0.07017  -0.25354
N          N       0.42310   0.51895   0.37324  -0.25993
N          N       0.86688   0.50680   0.07736  -0.25880
N          N       0.56262   0.35496   0.60348  -0.23611
N          N       0.22213   0.37452   0.92987  -0.25514
N          N       0.05116   0.98227   0.62735  -0.26025
N          N       0.79166   0.99181   0.92206  -0.25733
N          N       0.04239   0.85660   0.60370  -0.23491
N          N       0.71176   0.87357   0.92983  -0.25373
N          N       0.57689   0.48104   0.62676  -0.25938
N          N       0.13311   0.49319   0.92264  -0.25869
N          N       0.43737   0.64504   0.39652  -0.23594
N          N       0.77786   0.62548   0.07013  -0.25466
N          N       0.94883   0.01773   0.37266  -0.26056
N          N       0.20835   0.00819   0.07794  -0.25742
O          O       0.18897   0.08560   0.38303  -0.58149
O          O       0.28214   0.00025   0.39695  -0.54728
O          O       0.13741   0.12483   0.51440  -0.53442
O          O       0.95094   0.07520   0.49987  -0.55173
O          O       0.08722   0.12148   0.96346  -0.58482
O          O       0.91839   0.16787   0.99303  -0.57383
O          O       0.91620   0.99786   0.05886  -0.54270
O          O       0.71471   0.96014   0.03347  -0.51370
O          O       0.91021   0.23856   0.72881  -0.22960
O          O       0.63782   0.12494   0.25091  -0.22051
O          O       0.81109   0.39230   0.19627  -0.19733
O          O       0.56979   0.24443   0.15988  -0.18929
O          O       0.53759   0.40353   0.25134  -0.18106
O          O       0.73020   0.26123   0.30058  -0.18947
O          O       0.80702   0.41211   0.61672  -0.58217
O          O       0.88720   0.49638   0.60025  -0.54837
O          O       0.62427   0.37213   0.48501  -0.53394
O          O       0.45487   0.42323   0.50025  -0.55312
O          O       0.12845   0.37822   0.03684  -0.58579
O          O       0.92983   0.33248   0.00617  -0.57396
O          O       0.85521   0.50218   0.94123  -0.54177
O          O       0.67773   0.53980   0.96598  -0.51483
O          O       0.17428   0.26190   0.27174  -0.22859
O          O       0.38977   0.37460   0.74872  -0.22036
O          O       0.61211   0.10511   0.80288  -0.19703
O          O       0.41770   0.25542   0.84278  -0.19092
O          O       0.28171   0.09909   0.74905  -0.18066
O          O       0.43122   0.23855   0.70020  -0.18800
O          O       0.81102   0.91439   0.61698  -0.58109
O          O       0.71787  -0.00026   0.60305  -0.54761
O          O       0.86250   0.87514   0.48560  -0.53359
O          O       0.04848   0.92509   0.50004  -0.55188
O          O       0.91277   0.87851   0.03654  -0.58473
O          O       0.08160   0.83212   0.00697  -0.57400
O          O       0.08381   0.00213   0.94114  -0.54235
O          O       0.28529   0.03986   0.96652  -0.51442
O          O       0.08975   0.76145   0.27120  -0.22925
O          O       0.36217   0.87506   0.74909  -0.21997
O          O       0.18889   0.60769   0.80373  -0.19697
O          O       0.43020   0.75557   0.84012  -0.18915
O          O       0.46240   0.59646   0.74866  -0.18140
O          O       0.26979   0.73877   0.69941  -0.18946
O          O       0.19298   0.58789   0.38328  -0.58265
O          O       0.11279   0.50362   0.39974  -0.54800
O          O       0.37572   0.62787   0.51499  -0.53393
O          O       0.54513   0.57677   0.49975  -0.55293
O          O       0.87154   0.62178   0.96315  -0.58547
O          O       0.07017   0.66751   0.99383  -0.57432
O          O       0.14479   0.49782   0.05877  -0.54163
O          O       0.32227   0.46019   0.03401  -0.51475
O          O       0.82572   0.73810   0.72826  -0.22898
O          O       0.61022   0.62539   0.25127  -0.22069
O          O       0.38789   0.89488   0.19712  -0.19735
O          O       0.58230   0.74458   0.15722  -0.19060
O          O       0.71827   0.90091   0.25095  -0.18053
O          O       0.56877   0.76144   0.29980  -0.18839

