data_crystal

_audit_creation_method 'AiiDA-DDEC plugin'

_cell_length_a        13.73455
_cell_length_b        23.75441
_cell_length_c        23.75645

_cell_angle_alpha     74.58624
_cell_angle_beta     73.15089
_cell_angle_gamma     73.14941

_symmetry_space_group_name_Hall 'P 1'
_symmetry_space_group_name_H-M  'P 1'

loop_
_symmetry_equiv_pos_as_xyz
 'x,y,z'

loop_
_atom_site_label
_atom_site_type_symbol
_atom_site_fract_x
_atom_site_fract_y
_atom_site_fract_z
_atom_site_charge
Ni         Ni      0.93088   0.24569   0.65551   0.76302
Ni         Ni      0.80192   0.06093   0.33066   0.79208
Ni         Ni      0.66848   0.74572   0.15534   0.76344
Ni         Ni      0.30727   0.56071   0.83095   0.79454
Ni         Ni      0.16848   0.65535   0.24572   0.76340
Ni         Ni      0.80727   0.33095   0.06070   0.79447
Ni         Ni      0.43088   0.15552   0.74568   0.76304
Ni         Ni      0.30189   0.83067   0.56094   0.79202
H          H       0.76776   0.08346   0.74396   0.32966
H          H       0.63003   0.88405   0.04703   0.35032
H          H       0.02830   0.04692   0.33739   0.34059
H          H       0.57421   0.05313   0.34480   0.34196
H          H       0.87378   0.17964   0.83950   0.10032
H          H       0.89081   0.16414   0.94348   0.09984
H          H       0.85933   0.11029   0.04936   0.10933
H          H       0.77288   0.02444   0.07955   0.10275
H          H       0.71632   0.99342   0.00551   0.10421
H          H       0.67761   0.98652   0.85757   0.11805
H          H       0.62465   0.99333   0.93259   0.11857
H          H       0.93678   0.76867   0.97544   0.11781
H          H       0.06281   0.77404   0.87870   0.11303
H          H       0.12201   0.82826   0.77499   0.11046
H          H       0.01888   0.93049   0.73902   0.09647
H          H       0.85688   0.97637   0.80321   0.10625
H          H       0.96718   0.23291   0.36185   0.11209
H          H       0.06865   0.29090   0.38270   0.10473
H          H       0.23690   0.30015   0.39604   0.10523
H          H       0.39242   0.21516   0.38605   0.09152
H          H       0.38274   0.12103   0.36627   0.10895
H          H       0.33339   0.03364   0.39033   0.10505
H          H       0.26898   0.00084   0.35791   0.10117
H          H       0.63878   0.02395   0.16068   0.11387
H          H       0.53514   0.00745   0.10068   0.10887
H          H       0.36483   0.00080   0.08871   0.10081
H          H       0.20719   0.01386   0.17219   0.09968
H          H       0.21804   0.03051   0.26771   0.10784
H          H       0.03689   0.40162   0.82432   0.11426
H          H       0.93414   0.36826   0.86838   0.09647
H          H       0.96679   0.36581   0.65389   0.10050
H          H       0.98473   0.41392   0.73011   0.11515
H          H       0.05864   0.23654   0.83830   0.12689
H          H       0.03491   0.19640   0.75924   0.08720
H          H       0.06723   0.27432   0.90400   0.09269
H          H       0.06592   0.33876   0.92585   0.08395
H          H       0.22222   0.29809   0.81362   0.11487
H          H       0.24826   0.27719   0.88605   0.11412
H          H       0.35085   0.47748   0.74697   0.10118
H          H       0.29715   0.38301   0.75240   0.12112
H          H       0.17670   0.37580   0.94264   0.12334
H          H       0.22409   0.47145   0.92888   0.09153
H          H       0.05722   0.13149   0.71213   0.09747
H          H       0.24157   0.07583   0.68457   0.13513
H          H       0.24658   0.17129   0.50160   0.12163
H          H       0.06960   0.23052   0.53869   0.09684
H          H       0.41318   0.11769   0.58677   0.12717
H          H       0.40034   0.09943   0.52250   0.09989
H          H       0.39695   0.99589   0.57433   0.08156
H          H       0.37403   0.01305   0.64547   0.09806
H          H       0.54552   0.03483   0.62351   0.09899
H          H       0.55831   0.96152   0.61370   0.09888
H          H       0.68865   0.97269   0.40172   0.08576
H          H       0.58375   0.94628   0.50484   0.12877
H          H       0.62487   0.10585   0.54107   0.11565
H          H       0.73065   0.12558   0.43502   0.10670
H          H       0.90700   0.58390   0.24443   0.32869
H          H       0.94040   0.38377   0.54677   0.34994
H          H       0.08692   0.54631   0.83795   0.34297
H          H       0.52904   0.55154   0.84554   0.34025
H          H       0.60697   0.67938   0.33913   0.10009
H          H       0.50106   0.66430   0.44316   0.09893
H          H       0.48069   0.61126   0.54932   0.11023
H          H       0.62313   0.52562   0.57975   0.10356
H          H       0.78469   0.49387   0.50567   0.10409
H          H       0.97834   0.48652   0.35775   0.11891
H          H       0.94963   0.49330   0.43274   0.11862
H          H       0.81894   0.26882   0.47582   0.11576
H          H       0.78312   0.27462   0.37926   0.11275
H          H       0.77368   0.32881   0.27556   0.11246
H          H       0.81114   0.43087   0.23944   0.09619
H          H       0.86267   0.47671   0.30372   0.10648
H          H       0.93693   0.73208   0.86296   0.11191
H          H       0.75705   0.79044   0.88275   0.10564
H          H       0.56605   0.79997   0.89605   0.10459
H          H       0.50535   0.71527   0.88586   0.09421
H          H       0.62905   0.62106   0.86581   0.10856
H          H       0.74200   0.53332   0.89019   0.10610
H          H       0.87203   0.50034   0.85850   0.10003
H          H       0.67717   0.52421   0.66049   0.11403
H          H       0.85784   0.50721   0.60057   0.10862
H          H       0.04683   0.50055   0.58867   0.10157
H          H       0.10751   0.51401   0.67206   0.09875
H          H       0.98399   0.53053   0.76762   0.10618
H          H       0.23735   0.90149   0.32492   0.11364
H          H       0.32936   0.86771   0.36895   0.09725
H          H       0.51344   0.86593   0.15414   0.10047
H          H       0.37121   0.91386   0.23067   0.11554
H          H       0.36644   0.73634   0.33835   0.12853
H          H       0.50927   0.69632   0.25901   0.08819
H          H       0.25429   0.77407   0.40439   0.09308
H          H       0.16936   0.83853   0.42630   0.08410
H          H       0.16581   0.79793   0.31415   0.11406
H          H       0.08821   0.77713   0.38667   0.11390
H          H       0.92512   0.97724   0.24711   0.10062
H          H       0.06745   0.88244   0.25290   0.12201
H          H       0.00404   0.87577   0.44315   0.12297
H          H       0.87546   0.97189   0.42884   0.09209
H          H       0.59913   0.63175   0.21176   0.09820
H          H       0.49822   0.57615   0.18412   0.13353
H          H       0.58169   0.67141   0.00113   0.12140
H          H       0.66188   0.73068   0.03835   0.09754
H          H       0.38316   0.61760   0.08631   0.12600
H          H       0.47878   0.59954   0.02202   0.09923
H          H       0.53446   0.49601   0.07359   0.08121
H          H       0.46957   0.51300   0.14487   0.09706
H          H       0.29770   0.53456   0.12354   0.10040
H          H       0.36838   0.46132   0.11361   0.09888
H          H       0.43650   0.47166   0.90219   0.08332
H          H       0.46578   0.44575   0.00500   0.12728
H          H       0.22975   0.60573   0.04115   0.11637
H          H       0.20906   0.62512   0.93536   0.10637
H          H       0.40698   0.74444   0.08390   0.32833
H          H       0.44040   0.04678   0.88376   0.34985
H          H       0.58692   0.33795   0.04631   0.34285
H          H       0.02903   0.34555   0.05153   0.34021
H          H       0.10697   0.83916   0.17938   0.09979
H          H       0.00108   0.94321   0.16430   0.09882
H          H       0.98071   0.04937   0.11126   0.10996
H          H       0.12312   0.07978   0.02560   0.10342
H          H       0.28465   0.00570   0.99385   0.10407
H          H       0.47831   0.85776   0.98651   0.11872
H          H       0.44960   0.93276   0.99328   0.11893
H          H       0.31897   0.97580   0.76881   0.11597
H          H       0.28316   0.87924   0.77462   0.11293
H          H       0.27369   0.77553   0.82884   0.11220
H          H       0.31111   0.73942   0.93089   0.09595
H          H       0.36262   0.80372   0.97672   0.10619
H          H       0.43693   0.36296   0.23206   0.11168
H          H       0.25705   0.38275   0.29042   0.10562
H          H       0.06606   0.39604   0.29994   0.10415
H          H       0.00536   0.38585   0.21525   0.09423
H          H       0.12905   0.36581   0.12105   0.10871
H          H       0.24200   0.39021   0.03332   0.10633
H          H       0.37203   0.35851   0.00034   0.10023
H          H       0.17718   0.16048   0.02420   0.11408
H          H       0.35784   0.10056   0.00719   0.10859
H          H       0.54683   0.08866   0.00052   0.10154
H          H       0.60752   0.17206   0.01398   0.09876
H          H       0.48400   0.26762   0.03051   0.10622
H          H       0.73734   0.82492   0.40149   0.11329
H          H       0.82934   0.86897   0.36770   0.09721
H          H       0.01344   0.65414   0.36592   0.10024
H          H       0.87121   0.73067   0.41384   0.11528
H          H       0.86643   0.83838   0.23635   0.12880
H          H       0.00927   0.75903   0.19633   0.08817
H          H       0.75423   0.90441   0.27408   0.09340
H          H       0.66932   0.92632   0.33854   0.08419
H          H       0.66576   0.81416   0.29795   0.11391
H          H       0.58814   0.88668   0.27716   0.11424
H          H       0.42513   0.74709   0.47724   0.10040
H          H       0.56744   0.75290   0.38244   0.12189
H          H       0.50401   0.94316   0.37580   0.12318
H          H       0.37547   0.92883   0.47192   0.09205
H          H       0.09912   0.71178   0.13177   0.09842
H          H      -0.00178   0.68414   0.07616   0.13369
H          H       0.08172   0.50112   0.17140   0.12125
H          H       0.16190   0.53834   0.23067   0.09734
H          H       0.88317   0.58633   0.11759   0.12607
H          H       0.97878   0.52202   0.09953   0.09910
H          H       0.03449   0.57360   0.99603   0.08103
H          H       0.96960   0.64488   0.01300   0.09722
H          H       0.79772   0.62358   0.03455   0.10057
H          H       0.86842   0.61364   0.96132   0.09900
H          H       0.93648   0.40220   0.97165   0.08345
H          H       0.96578   0.50501   0.94575   0.12750
H          H       0.72978   0.54118   0.10571   0.11638
H          H       0.70907   0.43538   0.12510   0.10631
H          H       0.26776   0.24397   0.58346   0.32930
H          H       0.13006   0.54705   0.38405   0.35068
H          H       0.52828   0.83741   0.54691   0.34080
H          H       0.07416   0.84482   0.55313   0.34160
H          H       0.37375   0.33953   0.67963   0.10016
H          H       0.39075   0.44353   0.66413   0.09935
H          H       0.35928   0.54942   0.61029   0.10944
H          H       0.27289   0.57960   0.52442   0.10283
H          H       0.21635   0.50554   0.49340   0.10440
H          H       0.17764   0.35758   0.48651   0.11783
H          H       0.12468   0.43261   0.49331   0.11848
H          H       0.43678   0.47542   0.26867   0.11810
H          H       0.56280   0.37866   0.27405   0.11320
H          H       0.62202   0.27494   0.32829   0.11060
H          H       0.51891   0.23899   0.43051   0.09599
H          H       0.35693   0.30321   0.47639   0.10586
H          H       0.46718   0.86189   0.73288   0.11199
H          H       0.56867   0.88268   0.79087   0.10498
H          H       0.73692   0.89604   0.80011   0.10504
H          H       0.89243   0.88605   0.71514   0.09140
H          H       0.88273   0.86628   0.62102   0.10895
H          H       0.83336   0.89033   0.53364   0.10539
H          H       0.76895   0.85791   0.50084   0.10140
H          H       0.13878   0.66067   0.52394   0.11369
H          H       0.03514   0.60066   0.50743   0.10878
H          H       0.86483   0.58869   0.50078   0.10056
H          H       0.70719   0.67219   0.51383   0.09967
H          H       0.71803   0.76771   0.53049   0.10800
H          H       0.53690   0.32433   0.90161   0.11390
H          H       0.43415   0.36841   0.86825   0.09664
H          H       0.46680   0.15389   0.86580   0.10033
H          H       0.48476   0.23012   0.91390   0.11499
H          H       0.55862   0.33833   0.73655   0.12713
H          H       0.53489   0.25926   0.69640   0.08746
H          H       0.56726   0.40402   0.77433   0.09314
H          H       0.56592   0.42588   0.83876   0.08405
H          H       0.72223   0.31363   0.79810   0.11465
H          H       0.74828   0.38607   0.77721   0.11439
H          H       0.85086   0.24696   0.97748   0.10096
H          H       0.79717   0.25240   0.88302   0.12093
H          H       0.67667   0.44266   0.87583   0.12372
H          H       0.72406   0.42889   0.97147   0.09163
H          H       0.55719   0.21215   0.63150   0.09766
H          H       0.74153   0.18459   0.57584   0.13521
H          H       0.74658   0.00159   0.67128   0.12137
H          H       0.56960   0.03868   0.73051   0.09672
H          H       0.91316   0.08679   0.61768   0.12724
H          H       0.90033   0.02250   0.59943   0.09979
H          H       0.89691   0.07434   0.49590   0.08147
H          H       0.87399   0.14548   0.51306   0.09803
H          H       0.04549   0.12352   0.53481   0.09927
H          H       0.05827   0.11371   0.46151   0.09903
H          H       0.18866   0.90171   0.47269   0.08562
H          H       0.08375   0.00485   0.44626   0.12881
H          H       0.12484   0.04109   0.60583   0.11562
H          H       0.23063   0.93502   0.62557   0.10660
C          C       0.83113   0.15627   0.74537   0.57194
C          C       0.76018   0.79959   0.05594   0.55106
C          C       0.83603   0.14217   0.85301  -0.14273
C          C       0.80737   0.12550   0.80960  -0.17277
C          C       0.76136   0.07473   0.82626   0.23142
C          C       0.74420   0.04201   0.88509  -0.05011
C          C       0.77128   0.06056   0.92987   0.04317
C          C       0.81955   0.11087   0.91322   0.04931
C          C       0.85134   0.12733   0.95732  -0.14275
C          C       0.83459   0.09709   0.01620  -0.10143
C          C       0.78524   0.04845   0.03305  -0.07546
C          C       0.75441   0.03071   0.99127  -0.14652
C          C       0.69836   0.98766   0.89847  -0.21170
C          C       0.89064   0.81270   0.95948  -0.12174
C          C       0.79674   0.83564   0.99652  -0.17566
C          C       0.73507   0.89360   0.97536   0.22844
C          C       0.76830   0.92742   0.91873  -0.04953
C          C       0.86416   0.90282   0.88044   0.04143
C          C       0.92577   0.84451   0.90124   0.04850
C          C       0.01897   0.81874   0.86249  -0.12508
C          C       0.05169   0.84873   0.80476  -0.10078
C          C       0.99267   0.90645   0.78445  -0.07678
C          C       0.90162   0.93282   0.82091  -0.14737
C          C       0.91942   0.13770   0.34761   0.57869
C          C       0.68532   0.04088   0.25471   0.57934
C          C       0.03447   0.19493   0.35979  -0.10986
C          C       0.02398   0.14172   0.35125  -0.17218
C          C       0.11265   0.09123   0.34905   0.21969
C          C       0.21014   0.09524   0.35236  -0.05619
C          C       0.21920   0.15026   0.36222   0.04483
C          C       0.12984   0.20032   0.36671   0.05028
C          C       0.13775   0.25403   0.37916  -0.12182
C          C       0.23057   0.25916   0.38653  -0.10092
C          C       0.31893   0.21051   0.38115  -0.06899
C          C       0.31361   0.15757   0.36959  -0.15569
C          C       0.30125   0.03996   0.35124  -0.20330
C          C       0.57049   0.02752   0.19797  -0.12094
C          C       0.58058   0.03668   0.25095  -0.16925
C          C       0.49053   0.04083   0.30056   0.21926
C          C       0.39268   0.03846   0.29605  -0.05656
C          C       0.38350   0.02973   0.24055   0.04345
C          C       0.47410   0.02319   0.19142   0.04975
C          C       0.46555   0.01244   0.13712  -0.12672
C          C       0.37125   0.00896   0.13027  -0.09935
C          C       0.28159   0.01643   0.17789  -0.06899
C          C       0.28762   0.02616   0.23157  -0.15520
C          C       0.01621   0.35790   0.84324  -0.21319
C          C       0.98568   0.33891   0.69575   0.09363
C          C       0.99590   0.36540   0.73873  -0.18930
C          C       0.01827   0.32976   0.79285   0.17049
C          C       0.03697   0.26752   0.79870  -0.19607
C          C       0.02448   0.24435   0.75413   0.10196
C          C       0.08503   0.31875   0.88620  -0.14229
C          C       0.20262   0.31228   0.85677  -0.21562
C          C       0.31062   0.45336   0.78892   0.08640
C          C       0.28213   0.40044   0.79282  -0.17909
C          C       0.23434   0.37009   0.84836   0.18044
C          C       0.21432   0.39637   0.89808  -0.18299
C          C       0.24148   0.44991   0.89099   0.08142
C          C       0.10302   0.13970   0.66626   0.08068
C          C       0.20469   0.10705   0.64989  -0.17144
C          C       0.26072   0.11807   0.59001   0.18051
C          C       0.20848   0.16090   0.54896  -0.17584
C          C       0.10848   0.19409   0.56910   0.10473
C          C       0.37542   0.09101   0.57167  -0.21265
C          C       0.41400   0.02444   0.59814  -0.13096
C          C       0.53207   0.00941   0.59526  -0.21722
C          C       0.67246   0.00093   0.43411   0.08026
C          C       0.61337   0.98687   0.49174  -0.17569
C          C       0.59541   0.02400   0.53253   0.18645
C          C       0.63710   0.07512   0.51157  -0.18464
C          C       0.69599   0.08670   0.45301   0.08075
C          C       0.76738   0.65610   0.24545   0.57402
C          C       0.88539   0.29948   0.55584   0.54725
C          C       0.66871   0.64203   0.35290  -0.14201
C          C       0.75790   0.62543   0.30966  -0.17310
C          C       0.83838   0.57490   0.32649   0.23087
C          C       0.82885   0.54213   0.38529  -0.05060
C          C       0.73816   0.56074   0.42995   0.04121
C          C       0.65612   0.61097   0.41317   0.05132
C          C       0.56360   0.62764   0.45717  -0.14269
C          C       0.55182   0.59782   0.51617  -0.10019
C          C       0.63310   0.54926   0.53314  -0.07965
C          C       0.72345   0.53115   0.49141  -0.14402
C          C       0.91556   0.48770   0.39870  -0.21184
C          C       0.83708   0.31282   0.45972  -0.11906
C          C       0.87159   0.33562   0.49656  -0.17558
C          C       0.89628   0.39360   0.47546   0.22817
C          C       0.88545   0.42754   0.41896  -0.04993
C          C       0.85200   0.40308   0.38083   0.04306
C          C       0.82779   0.34482   0.40163   0.04894
C          C       0.79869   0.31924   0.36298  -0.12741
C          C       0.79384   0.34925   0.30526  -0.10127
C          C       0.81561   0.40690   0.28492  -0.07563
C          C       0.84385   0.43317   0.32138  -0.14913
C          C       0.09442   0.63660   0.84948   0.58363
C          C       0.51986   0.54074   0.75470   0.57942
C          C       0.90997   0.69423   0.86041  -0.10850
C          C       0.98237   0.64099   0.85201  -0.17505
C          C       0.94652   0.59082   0.84909   0.21925
C          C       0.84168   0.59487   0.85233  -0.05547
C          C       0.76749   0.64992   0.86215   0.04595
C          C       0.80233   0.69987   0.86676   0.05018
C          C       0.72829   0.75365   0.87917  -0.12368
C          C       0.62290   0.75896   0.88650  -0.09656
C          C       0.58847   0.71043   0.88102  -0.07382
C          C       0.65830   0.65745   0.86938  -0.15591
C          C       0.80745   0.53946   0.85135  -0.20322
C          C       0.70482   0.52730   0.69786  -0.12067
C          C       0.63264   0.53615   0.75097  -0.16861
C          C       0.66901   0.53981   0.80065   0.21833
C          C       0.77354   0.53777   0.79606  -0.05673
C          C       0.84693   0.52938   0.74045   0.04189
C          C       0.81211   0.52296   0.69129   0.05053
C          C       0.88588   0.51230   0.63697  -0.12814
C          C       0.99051   0.50882   0.63018  -0.10073
C          C       0.02489   0.51641   0.67777  -0.06675
C          C       0.95526   0.52605   0.73145  -0.15239
C          C       0.28269   0.85764   0.34372  -0.21416
C          C       0.47963   0.83895   0.19598   0.09298
C          C       0.39998   0.86534   0.23914  -0.18887
C          C       0.35913   0.82960   0.29320   0.17029
C          C       0.39680   0.76737   0.29881  -0.19855
C          C       0.47696   0.74429   0.25407   0.10260
C          C       0.20991   0.81854   0.38663  -0.14256
C          C       0.12815   0.81213   0.35730  -0.21481
C          C       0.94742   0.95321   0.28910   0.08919
C          C       0.02467   0.90013   0.29321  -0.18154
C          C       0.04705   0.86995   0.34884   0.18109
C          C       0.99086   0.89637   0.39849  -0.17823
C          C       0.91760   0.95008   0.39113   0.07608
C          C       0.59120   0.63995   0.16588   0.07626
C          C       0.53868   0.60733   0.14946  -0.16663
C          C       0.53188   0.61829   0.08955   0.17917
C          C       0.58250   0.66108   0.04852  -0.17425
C          C       0.62895   0.69427   0.06873   0.10255
C          C       0.46293   0.59107   0.07119  -0.21137
C          C       0.46502   0.52443   0.09764  -0.12804
C          C       0.36481   0.50922   0.09516  -0.22087
C          C       0.39263   0.50021   0.93442   0.08249
C          C       0.40861   0.48633   0.99190  -0.17484
C          C       0.34909   0.52367   0.03259   0.18685
C          C       0.27721   0.57482   0.01170  -0.18541
C          C       0.26484   0.58627   0.95327   0.08067
C          C       0.26735   0.74546   0.15609   0.57419
C          C       0.38539   0.05585   0.79947   0.54709
C          C       0.16870   0.85293   0.14202  -0.14172
C          C       0.25788   0.80968   0.12542  -0.17344
C          C       0.33836   0.82650   0.07489   0.23086
C          C       0.32883   0.88531   0.04211  -0.05070
C          C       0.23814   0.92998   0.06073   0.04139
C          C       0.15611   0.91320   0.11096   0.05109
C          C       0.06361   0.95721   0.12763  -0.14295
C          C       0.05183   0.01621   0.09781  -0.09949
C          C       0.13309   0.03318   0.04924  -0.07928
C          C       0.22343   0.99144   0.03113  -0.14378
C          C       0.41554   0.89872   0.98769  -0.21208
C          C       0.33709   0.95971   0.81281  -0.11922
C          C       0.37158   0.99656   0.83561  -0.17510
C          C       0.39626   0.97546   0.89360   0.22788
C          C       0.38543   0.91896   0.92753  -0.04983
C          C       0.35198   0.88083   0.90308   0.04288
C          C       0.32780   0.90162   0.84481   0.04898
C          C       0.29872   0.86296   0.81924  -0.12707
C          C       0.29385   0.80524   0.84926  -0.10140
C          C       0.31560   0.78490   0.90692  -0.07634
C          C       0.34382   0.82138   0.93318  -0.14860
C          C       0.59441   0.34949   0.13660   0.58376
C          C       0.01986   0.25470   0.04073   0.57936
C          C       0.40996   0.36041   0.19422  -0.10862
C          C       0.48237   0.35202   0.14098  -0.17507
C          C       0.44652   0.34910   0.09082   0.21920
C          C       0.34168   0.35233   0.09487  -0.05542
C          C       0.26749   0.36215   0.14991   0.04582
C          C       0.30233   0.36676   0.19985   0.05047
C          C       0.22829   0.37917   0.25363  -0.12420
C          C       0.12290   0.38649   0.25894  -0.09609
C          C       0.08847   0.38102   0.21042  -0.07394
C          C       0.15830   0.36938   0.15744  -0.15582
C          C       0.30745   0.35136   0.03946  -0.20325
C          C       0.20482   0.19786   0.02729  -0.12106
C          C       0.13264   0.25097   0.03614  -0.16834
C          C       0.16900   0.30066   0.03980   0.21824
C          C       0.27354   0.29606   0.03776  -0.05697
C          C       0.34693   0.24046   0.02937   0.04180
C          C       0.31211   0.19128   0.02294   0.05087
C          C       0.38588   0.13696   0.01228  -0.12807
C          C       0.49052   0.13017   0.00880  -0.10065
C          C       0.52489   0.17777   0.01638  -0.06690
C          C       0.45526   0.23145   0.02603  -0.15259
C          C       0.78267   0.84374   0.35763  -0.21388
C          C       0.97962   0.69598   0.33895   0.09273
C          C       0.89998   0.73914   0.36533  -0.18884
C          C       0.85911   0.79321   0.32960   0.16989
C          C       0.89678   0.79883   0.26737  -0.19850
C          C       0.97695   0.75408   0.24430   0.10310
C          C       0.70987   0.88664   0.31855  -0.14271
C          C       0.62811   0.85731   0.31215  -0.21456
C          C       0.44742   0.78908   0.45322   0.08867
C          C       0.52466   0.79320   0.40014  -0.18124
C          C       0.54703   0.84884   0.36997   0.18086
C          C       0.49084   0.89850   0.39639  -0.17803
C          C       0.41760   0.89113   0.45011   0.07640
C          C       0.09120   0.66589   0.13996   0.07641
C          C       0.03869   0.64947   0.10734  -0.16667
C          C       0.03189   0.58956   0.11829   0.17899
C          C       0.08251   0.54852   0.16107  -0.17414
C          C       0.12896   0.56873   0.19427   0.10230
C          C       0.96294   0.57120   0.09107  -0.21152
C          C       0.96505   0.59765   0.02444  -0.12797
C          C       0.86484   0.59518   0.00922  -0.22114
C          C       0.89262   0.43443   0.00020   0.08271
C          C       0.90860   0.49192   0.98632  -0.17523
C          C       0.84910   0.53261   0.02366   0.18770
C          C       0.77723   0.51172   0.07481  -0.18595
C          C       0.76485   0.45329   0.08625   0.08083
C          C       0.33112   0.24539   0.65627   0.57235
C          C       0.26021   0.55595   0.29959   0.55128
C          C       0.33601   0.35304   0.64215  -0.14269
C          C       0.30736   0.30963   0.62549  -0.17265
C          C       0.26136   0.32628   0.57472   0.23093
C          C       0.24422   0.38511   0.54200  -0.04998
C          C       0.27128   0.42990   0.56054   0.04299
C          C       0.31954   0.41326   0.61086   0.04915
C          C       0.35130   0.45737   0.62732  -0.14236
C          C       0.33456   0.51625   0.59708  -0.10161
C          C       0.28524   0.53309   0.54843  -0.07478
C          C       0.25442   0.49130   0.53068  -0.14672
C          C       0.19839   0.39849   0.48765  -0.21131
C          C       0.39066   0.45946   0.31270  -0.12167
C          C       0.29676   0.49652   0.33563  -0.17570
C          C       0.23510   0.47536   0.39359   0.22858
C          C       0.26833   0.41873   0.42741  -0.04979
C          C       0.36419   0.38043   0.40282   0.04121
C          C       0.42579   0.40122   0.34451   0.04858
C          C       0.51897   0.36245   0.31874  -0.12507
C          C       0.55171   0.30472   0.34875  -0.10069
C          C       0.49270   0.28443   0.40647  -0.07649
C          C       0.40166   0.32090   0.43283  -0.14746
C          C       0.41935   0.84787   0.63762   0.57774
C          C       0.18531   0.75471   0.54088   0.57912
C          C       0.53448   0.85983   0.69490  -0.11002
C          C       0.52396   0.85135   0.64168  -0.17163
C          C       0.61264   0.84907   0.59121   0.21970
C          C       0.71015   0.85235   0.59524  -0.05618
C          C       0.71922   0.86220   0.65026   0.04480
C          C       0.62987   0.86668   0.70031   0.05055
C          C       0.63777   0.87913   0.75401  -0.12229
C          C       0.73058   0.88651   0.75914  -0.10073
C          C       0.81895   0.88115   0.71049  -0.06858
C          C       0.81362   0.86958   0.65756  -0.15597
C          C       0.80124   0.85124   0.53996  -0.20374
C          C       0.07048   0.69796   0.52752  -0.12106
C          C       0.08057   0.75095   0.53667  -0.16938
C          C       0.99050   0.80057   0.54082   0.21929
C          C       0.89266   0.79605   0.53845  -0.05631
C          C       0.88350   0.74055   0.52971   0.04345
C          C       0.97410   0.69141   0.52318   0.04977
C          C       0.96556   0.63710   0.51242  -0.12682
C          C       0.87126   0.63026   0.50894  -0.09947
C          C       0.78159   0.67788   0.51640  -0.06861
C          C       0.78762   0.73157   0.52614  -0.15540
C          C       0.51622   0.34325   0.85789  -0.21366
C          C       0.48568   0.19576   0.83890   0.09365
C          C       0.49591   0.23874   0.86539  -0.18975
C          C       0.51827   0.29287   0.82976   0.17092
C          C       0.53696   0.29872   0.76752  -0.19595
C          C       0.52446   0.25415   0.74436   0.10203
C          C       0.58504   0.38622   0.81875  -0.14231
C          C       0.70263   0.35678   0.81230  -0.21548
C          C       0.81063   0.28892   0.95336   0.08622
C          C       0.78214   0.29282   0.90045  -0.17891
C          C       0.73433   0.34837   0.87010   0.18030
C          C       0.71431   0.39809   0.89639  -0.18297
C          C       0.74146   0.39100   0.94993   0.08191
C          C       0.60300   0.16627   0.63971   0.08059
C          C       0.70467   0.14990   0.60705  -0.17138
C          C       0.76070   0.09002   0.61807   0.18051
C          C       0.70847   0.04896   0.66089  -0.17551
C          C       0.60848   0.06910   0.69409   0.10437
C          C       0.87540   0.07168   0.59100  -0.21293
C          C       0.91396   0.09815   0.52444  -0.13059
C          C       0.03203   0.09528   0.50940  -0.21774
C          C       0.17244   0.93412   0.50093   0.08086
C          C       0.11335   0.99176   0.48685  -0.17552
C          C       0.09538   0.03254   0.52398   0.18624
C          C       0.13706   0.01159   0.57511  -0.18443
C          C       0.19595   0.95303   0.58669   0.08099
N          N       0.05629   0.18440   0.62708  -0.24896
N          N       0.71437   0.04967   0.41475  -0.24682
N          N       0.99583   0.27919   0.70392  -0.23250
N          N       0.29079   0.47785   0.83745  -0.23639
N          N       0.63256   0.68462   0.12673  -0.24659
N          N       0.32143   0.54906   0.91509  -0.24691
N          N       0.52099   0.77923   0.20392  -0.23334
N          N       0.89437   0.97799   0.33749  -0.23565
N          N       0.13256   0.62674   0.18463  -0.24635
N          N       0.82142   0.41510   0.04905  -0.24732
N          N       0.02099   0.70393   0.27923  -0.23336
N          N       0.39437   0.83748   0.47801  -0.23599
N          N       0.55628   0.12709   0.68441  -0.24861
N          N       0.21435   0.91477   0.54966  -0.24760
N          N       0.49582   0.20394   0.77919  -0.23273
N          N       0.79078   0.33745   0.97785  -0.23692
O          O       0.86266   0.20523   0.73433  -0.57527
O          O       0.82296   0.13328   0.70507  -0.53392
O          O       0.66433   0.81856   0.08602  -0.56157
O          O       0.81418   0.75050   0.07911  -0.52478
O          O       0.73761   0.05681   0.78318  -0.45259
O          O       0.64262   0.91715   0.01121  -0.44277
O          O       0.92177   0.08837   0.32981  -0.59725
O          O       0.83752   0.17563   0.36102  -0.52073
O          O       0.68254   0.05926   0.30380  -0.60106
O          O       0.76666   0.02796   0.21631  -0.52607
O          O       0.10014   0.03692   0.34623  -0.45776
O          O       0.50193   0.04493   0.35467  -0.45837
O          O       0.69620   0.70427   0.23430  -0.57826
O          O       0.84043   0.63367   0.20537  -0.53424
O          O       0.93314   0.31820   0.58553  -0.55888
O          O       0.85688   0.25056   0.57928  -0.52337
O          O       0.92394   0.55707   0.28368  -0.45133
O          O       0.92932   0.41711   0.51128  -0.44307
O          O       0.15998   0.58764   0.83141  -0.60086
O          O       0.12402   0.67403   0.86415  -0.52145
O          O       0.45522   0.55915   0.80383  -0.60224
O          O       0.48988   0.52811   0.71619  -0.52553
O          O       0.01634   0.53658   0.84592  -0.45745
O          O       0.59988   0.54281   0.85511  -0.45607
O          O       0.19616   0.73433   0.20426  -0.57842
O          O       0.34040   0.70537   0.13368  -0.53416
O          O       0.43314   0.08554   0.81819  -0.55883
O          O       0.35688   0.07929   0.75056  -0.52305
O          O       0.42392   0.78369   0.05707  -0.45103
O          O       0.42932   0.01129   0.91709  -0.44274
O          O       0.65997   0.33143   0.08763  -0.60076
O          O       0.62402   0.36416   0.17403  -0.52182
O          O       0.95521   0.30384   0.05915  -0.60250
O          O       0.98988   0.21619   0.02810  -0.52531
O          O       0.51633   0.34592   0.03658  -0.45701
O          O       0.09987   0.35512   0.04281  -0.45592
O          O       0.36266   0.23437   0.70522  -0.57553
O          O       0.32295   0.20508   0.63328  -0.53426
O          O       0.16437   0.58604   0.31856  -0.56174
O          O       0.31419   0.57911   0.25049  -0.52456
O          O       0.23762   0.28319   0.55681  -0.45209
O          O       0.14265   0.51122   0.41713  -0.44319
O          O       0.42165   0.82984   0.58843  -0.59758
O          O       0.33746   0.86150   0.67547  -0.51990
O          O       0.18253   0.80381   0.55924  -0.60089
O          O       0.26665   0.71631   0.52796  -0.52616
O          O       0.60011   0.84625   0.53691  -0.45779
O          O       0.00188   0.85468   0.54493  -0.45777

