data_crystal

_audit_creation_method 'AiiDA-DDEC plugin'

_cell_length_a        11.17605
_cell_length_b        11.17608
_cell_length_c        44.31198

_cell_angle_alpha     90.00000
_cell_angle_beta     90.00000
_cell_angle_gamma     120.04281

_symmetry_space_group_name_Hall 'P 1'
_symmetry_space_group_name_H-M  'P 1'

loop_
_symmetry_equiv_pos_as_xyz
 'x,y,z'

loop_
_atom_site_label
_atom_site_type_symbol
_atom_site_fract_x
_atom_site_fract_y
_atom_site_fract_z
_atom_site_charge
Zn         Zn      0.52087   0.04212   0.41704   0.73630
Zn         Zn      0.52103   0.47894   0.74997   0.73670
Zn         Zn      0.95788   0.47913   0.08296   0.73643
Zn         Zn      0.47914   0.95787   0.91704   0.73636
Zn         Zn      0.47897   0.52104   0.24999   0.73670
Zn         Zn      0.04213   0.52087   0.58296   0.73646
H          H       0.36061   0.15674   0.23281   0.34200
H          H       0.11879   0.58391   0.27439   0.09153
H          H       0.43044   0.09193   0.33153   0.10445
H          H       0.42334   0.19556   0.28281   0.12559
H          H       0.53506   0.24951   0.37329   0.09543
H          H       0.21266   0.24046   0.44982   0.12551
H          H       0.32126   0.09258   0.45331   0.10556
H          H       0.24017   0.62601   0.36783   0.09859
H          H       0.43345   0.40041   0.36594   0.12867
H          H       0.12377   0.47663   0.32286   0.08815
H          H       0.23164   0.43746   0.38189   0.10961
H          H       0.36738   0.54514   0.40553   0.12219
H          H       0.79627   0.63950   0.56617   0.34246
H          H       0.46552   0.88130   0.60771   0.09100
H          H       0.66179   0.56987   0.66488   0.10462
H          H       0.77243   0.57695   0.61617   0.12647
H          H       0.71488   0.46513   0.70640   0.09542
H          H       0.02766   0.78658   0.78316   0.12552
H          H       0.77100   0.67796   0.78653   0.10523
H          H       0.38581   0.75974   0.70114   0.09843
H          H       0.96749   0.56664   0.69920   0.12853
H          H       0.35303   0.87624   0.65616   0.08816
H          H       0.20648   0.76790   0.71533   0.10951
H          H       0.17819   0.63255   0.73909   0.12283
H          H       0.84323   0.20369   0.89946   0.34143
H          H       0.41624   0.53461   0.94097   0.09124
H          H       0.90844   0.33835   0.99818   0.10427
H          H       0.80462   0.22756   0.94948   0.12581
H          H       0.74942   0.28411   0.03947   0.09560
H          H       0.75929   0.97335   0.11656   0.12587
H          H       0.90691   0.23016   0.11972   0.10562
H          H       0.37451   0.61385   0.03445   0.09866
H          H       0.59866   0.03129   0.03251   0.12810
H          H       0.52383   0.64681   0.98944   0.08831
H          H       0.56128   0.79325   0.04876   0.10915
H          H       0.45433   0.82143   0.07259   0.12305
H          H       0.79631   0.15677   0.60054   0.34158
H          H       0.46539   0.58377   0.55903   0.09135
H          H       0.66165   0.09156   0.50182   0.10428
H          H       0.77244   0.19538   0.55052   0.12592
H          H       0.71589   0.25058   0.46053   0.09560
H          H       0.02665   0.24071   0.38344   0.12589
H          H       0.76984   0.09309   0.38028   0.10562
H          H       0.38615   0.62549   0.46555   0.09866
H          H       0.96872   0.40133   0.46749   0.12821
H          H       0.35319   0.47618   0.51056   0.08826
H          H       0.20675   0.43872   0.45124   0.10938
H          H       0.17857   0.54567   0.42741   0.12303
H          H       0.84325   0.63939   0.26719   0.34201
H          H       0.41609   0.88121   0.22561   0.09151
H          H       0.90807   0.56956   0.16847   0.10434
H          H       0.80444   0.57665   0.21719   0.12554
H          H       0.75049   0.46494   0.12671   0.09557
H          H       0.75955   0.78734   0.05018   0.12546
H          H       0.90742   0.67874   0.04669   0.10557
H          H       0.37399   0.75983   0.13217   0.09849
H          H       0.59959   0.56655   0.13406   0.12868
H          H       0.52338   0.87623   0.17714   0.08808
H          H       0.56254   0.76836   0.11811   0.10964
H          H       0.45486   0.63263   0.09447   0.12223
H          H       0.36050   0.20373   0.93383   0.34243
H          H       0.11870   0.53448   0.89229   0.09104
H          H       0.43014   0.33821   0.83512   0.10464
H          H       0.42305   0.22757   0.88383   0.12646
H          H       0.53487   0.28514   0.79360   0.09553
H          H       0.21340   0.97231   0.71684   0.12547
H          H       0.32202   0.22896   0.71347   0.10497
H          H       0.24027   0.61418   0.79886   0.09829
H          H       0.43337   0.03254   0.80080   0.12854
H          H       0.12377   0.64696   0.84384   0.08817
H          H       0.23210   0.79352   0.78468   0.10972
H          H       0.36745   0.82181   0.76091   0.12281
H          H       0.63940   0.84325   0.73281   0.34210
H          H       0.88122   0.41608   0.77439   0.09127
H          H       0.56956   0.90806   0.83153   0.10449
H          H       0.57667   0.80443   0.78281   0.12585
H          H       0.46494   0.75048   0.87329   0.09500
H          H       0.78735   0.75953   0.94982   0.12578
H          H       0.67875   0.90741   0.95331   0.10548
H          H       0.75983   0.37398   0.86783   0.09851
H          H       0.56656   0.59958   0.86594   0.12867
H          H       0.87624   0.52336   0.82286   0.08791
H          H       0.76837   0.56254   0.88189   0.10963
H          H       0.63263   0.45486   0.90553   0.12223
H          H       0.20374   0.36049   0.06617   0.34209
H          H       0.53448   0.11869   0.10771   0.09116
H          H       0.33822   0.43012   0.16488   0.10443
H          H       0.22757   0.42304   0.11617   0.12613
H          H       0.28513   0.53486   0.20640   0.09554
H          H       0.97234   0.21341   0.28316   0.12548
H          H       0.22900   0.32203   0.28653   0.10543
H          H       0.61419   0.24025   0.20114   0.09849
H          H       0.03253   0.43336   0.19920   0.12831
H          H       0.64698   0.12375   0.15616   0.08850
H          H       0.79353   0.23209   0.21532   0.10957
H          H       0.82181   0.36744   0.23909   0.12251
H          H       0.15678   0.79631   0.39946   0.34180
H          H       0.58377   0.46538   0.44097   0.09113
H          H       0.09157   0.66164   0.49818   0.10442
H          H       0.19539   0.77243   0.44948   0.12601
H          H       0.25059   0.71589   0.53947   0.09573
H          H       0.24072   0.02664   0.61656   0.12577
H          H       0.09310   0.76983   0.61972   0.10557
H          H       0.62550   0.38614   0.53445   0.09879
H          H       0.40134   0.96871   0.53251   0.12812
H          H       0.47618   0.35318   0.48944   0.08813
H          H       0.43872   0.20674   0.54876   0.10900
H          H       0.54567   0.17856   0.57259   0.12325
H          H       0.20369   0.84322   0.10054   0.34180
H          H       0.53462   0.41622   0.05903   0.09121
H          H       0.33835   0.90844   0.00182   0.10440
H          H       0.22757   0.80461   0.05052   0.12605
H          H       0.28411   0.74941   0.96053   0.09588
H          H       0.97336   0.75928   0.88344   0.12557
H          H       0.23017   0.90690   0.88028   0.10551
H          H       0.61386   0.37450   0.96555   0.09860
H          H       0.03129   0.59866   0.96750   0.12836
H          H       0.64681   0.52382   0.01056   0.08814
H          H       0.79326   0.56128   0.95124   0.10918
H          H       0.82144   0.45433   0.92741   0.12326
H          H       0.15676   0.36061   0.76719   0.34221
H          H       0.58392   0.11878   0.72561   0.09144
H          H       0.09194   0.43044   0.66847   0.10433
H          H       0.19557   0.42334   0.71719   0.12574
H          H       0.24951   0.53505   0.62671   0.09536
H          H       0.24046   0.21265   0.55018   0.12554
H          H       0.09259   0.32125   0.54669   0.10543
H          H       0.62602   0.24017   0.63218   0.09836
H          H       0.40041   0.43344   0.63406   0.12878
H          H       0.47663   0.12376   0.67714   0.08796
H          H       0.43746   0.23163   0.61811   0.10984
H          H       0.54514   0.36737   0.59447   0.12222
H          H       0.63951   0.79626   0.43383   0.34201
H          H       0.88131   0.46551   0.39229   0.09126
H          H       0.56987   0.66178   0.33512   0.10435
H          H       0.57696   0.77242   0.38383   0.12601
H          H       0.46513   0.71486   0.29360   0.09545
H          H       0.78660   0.02767   0.21684   0.12554
H          H       0.67798   0.77102   0.21347   0.10540
H          H       0.75974   0.38581   0.29886   0.09845
H          H       0.56664   0.96746   0.30080   0.12829
H          H       0.87624   0.35303   0.34384   0.08853
H          H       0.76791   0.20647   0.28468   0.10967
H          H       0.63255   0.17818   0.26091   0.12247
C          C       0.23551   0.79395   0.29076   0.04697
C          C       0.30106  -0.00099   0.26007   0.27355
C          C       0.17075   0.64797   0.29391  -0.12175
C          C       0.30971   0.81493   0.34391  -0.07648
C          C       0.30917   0.87999   0.31615   0.03319
C          C       0.23043   0.85486   0.26286  -0.08001
C          C       0.37540   0.02571   0.31253  -0.12571
C          C       0.37272   0.08368   0.28527  -0.22165
C          C       0.46225   0.24985   0.38957   0.09608
C          C       0.38400   0.89484   0.37134   0.57304
C          C       0.31681   0.33709   0.40782   0.16683
C          C       0.28366   0.24652   0.43229  -0.19236
C          C       0.34338   0.16326   0.43449   0.09969
C          C       0.24031   0.67193   0.34623  -0.12025
C          C       0.40503   0.33384   0.38570  -0.18558
C          C       0.17353   0.58847   0.32097  -0.09576
C          C       0.27185   0.44338   0.40484  -0.20788
C          C       0.55863   0.76456   0.62411   0.04767
C          C       0.69809   0.69900   0.59342   0.27486
C          C       0.47751   0.82934   0.62723  -0.12184
C          C       0.50529   0.69046   0.67722  -0.07674
C          C       0.57092   0.69090   0.64949   0.03329
C          C       0.62465   0.76961   0.59621  -0.08135
C          C       0.65038   0.62471   0.64588  -0.12505
C          C       0.71109   0.62742   0.61862  -0.22266
C          C       0.78789   0.53773   0.72274   0.09570
C          C       0.51078   0.61620   0.70464   0.57291
C          C       0.02053   0.68288   0.74114   0.16646
C          C       0.96284   0.71578   0.76558  -0.19140
C          C       0.81974   0.65606   0.76771   0.10007
C          C       0.43178   0.75985   0.67955  -0.11956
C          C       0.92924   0.59492   0.71895  -0.18568
C          C       0.41516   0.82660   0.65428  -0.09516
C          C       0.17193   0.72797   0.73828  -0.20850
C          C       0.20629   0.44150   0.95738   0.04723
C          C       0.00106   0.30196   0.92671   0.27315
C          C       0.35231   0.52261   0.96051  -0.12113
C          C       0.18561   0.49477   0.01051  -0.07716
C          C       0.12037   0.42920   0.98276   0.03316
C          C       0.14523   0.37543   0.92949  -0.07946
C          C       0.97463   0.34966   0.97917  -0.12521
C          C       0.91652   0.28892   0.95193  -0.22240
C          C       0.74933   0.21159   0.05589   0.09558
C          C       0.10584   0.48928   0.03790   0.57231
C          C       0.66236   0.97938   0.07449   0.16611
C          C       0.75305   0.03770   0.09892  -0.19168
C          C       0.83622   0.18087   0.10092   0.09971
C          C       0.32862   0.56816   0.01284  -0.11893
C          C       0.66538   0.07014   0.05223  -0.18537
C          C       0.41196   0.58481   0.98757  -0.09617
C          C       0.55612   0.82790   0.07171  -0.20831
C          C       0.55850   0.79371   0.54262   0.04734
C          C       0.69804  -0.00107   0.57329   0.27318
C          C       0.47739   0.64770   0.53950  -0.12109
C          C       0.50523   0.81438   0.48949  -0.07723
C          C       0.57080   0.87963   0.51724   0.03281
C          C       0.62457   0.85477   0.57051  -0.07962
C          C       0.65033   0.02538   0.52083  -0.12535
C          C       0.71108   0.08349   0.54808  -0.22235
C          C       0.78841   0.25066   0.44411   0.09563
C          C       0.51072   0.89416   0.46210   0.57247
C          C       0.02061   0.33764   0.42551   0.16625
C          C       0.96231   0.24695   0.40109  -0.19162
C          C       0.81913   0.16378   0.39908   0.09958
C          C       0.43184   0.67139   0.48716  -0.11899
C          C       0.92987   0.33463   0.44778  -0.18541
C          C       0.41518   0.58804   0.51243  -0.09610
C          C       0.17210   0.44388   0.42829  -0.20870
C          C       0.20604   0.76448   0.20924   0.04693
C          C       0.00098   0.69893   0.23993   0.27366
C          C       0.35203   0.82925   0.20609  -0.12179
C          C       0.18506   0.69028   0.15609  -0.07643
C          C       0.12001   0.69084   0.18385   0.03334
C          C       0.14514   0.76957   0.23714  -0.08007
C          C       0.97429   0.62460   0.18747  -0.12560
C          C       0.91632   0.62727   0.21473  -0.22165
C          C       0.75015   0.53775   0.11044   0.09592
C          C       0.10515   0.61600   0.12866   0.57303
C          C       0.66291   0.68319   0.09219   0.16675
C          C       0.75348   0.71634   0.06771  -0.19219
C          C       0.83674   0.65661   0.06552   0.09951
C          C       0.32807   0.75969   0.15377  -0.12034
C          C       0.66616   0.59497   0.11430  -0.18546
C          C       0.41152   0.82647   0.17904  -0.09573
C          C       0.55662   0.72815   0.09517  -0.20803
C          C       0.23545   0.44137   0.87589   0.04765
C          C       0.30100   0.30191   0.90658   0.27476
C          C       0.17066   0.52249   0.87276  -0.12157
C          C       0.30956   0.49471   0.82277  -0.07684
C          C       0.30911   0.42908   0.85051   0.03324
C          C       0.23040   0.37535   0.90379  -0.08132
C          C       0.37530   0.34962   0.85413  -0.12541
C          C       0.37259   0.28891   0.88138  -0.22249
C          C       0.46226   0.21212   0.77726   0.09575
C          C       0.38383   0.48922   0.79536   0.57343
C          C       0.31711   0.97946   0.75886   0.16644
C          C       0.28421   0.03715   0.73442  -0.19182
C          C       0.34392   0.18023   0.73229   0.10030
C          C       0.24017   0.56822   0.82045  -0.11949
C          C       0.40508   0.07078   0.78105  -0.18547
C          C       0.17341   0.58484   0.84572  -0.09555
C          C       0.27204   0.82808   0.76173  -0.20862
C          C       0.76449   0.20604   0.79076   0.04690
C          C       0.69894   0.00098   0.76007   0.27354
C          C       0.82926   0.35202   0.79391  -0.12154
C          C       0.69029   0.18506   0.84391  -0.07656
C          C       0.69084   0.12000   0.81615   0.03322
C          C       0.76957   0.14514   0.76286  -0.07997
C          C       0.62461   0.97428   0.81253  -0.12537
C          C       0.62728   0.91631   0.78527  -0.22184
C          C       0.53776   0.75015   0.88957   0.09624
C          C       0.61601   0.10515   0.87134   0.57302
C          C       0.68320   0.66291   0.90782   0.16673
C          C       0.71635   0.75347   0.93229  -0.19211
C          C       0.65663   0.83673   0.93449   0.09952
C          C       0.75969   0.32806   0.84623  -0.12027
C          C       0.59497   0.66615   0.88570  -0.18532
C          C       0.82648   0.41152   0.82097  -0.09575
C          C       0.72815   0.55661   0.90484  -0.20793
C          C       0.44138   0.23544   0.12411   0.04755
C          C       0.30191   0.30099   0.09342   0.27478
C          C       0.52250   0.17065   0.12723  -0.12170
C          C       0.49472   0.30954   0.17722  -0.07699
C          C       0.42909   0.30910   0.14949   0.03332
C          C       0.37536   0.23039   0.09621  -0.08099
C          C       0.34963   0.37529   0.14587  -0.12518
C          C       0.28892   0.37258   0.11862  -0.22274
C          C       0.21212   0.46226   0.22274   0.09566
C          C       0.48923   0.38380   0.20464   0.57346
C          C       0.97948   0.31711   0.24114   0.16643
C          C       0.03716   0.28421   0.26558  -0.19141
C          C       0.18026   0.34393   0.26771   0.10010
C          C       0.56823   0.24015   0.17955  -0.11943
C          C       0.07077   0.40507   0.21895  -0.18551
C          C       0.58485   0.17340   0.15428  -0.09521
C          C       0.82808   0.27203   0.23828  -0.20853
C          C       0.79372   0.55849   0.45738   0.04737
C          C      -0.00105   0.69804   0.42671   0.27333
C          C       0.64770   0.47738   0.46051  -0.12126
C          C       0.81440   0.50523   0.51051  -0.07705
C          C       0.87963   0.57079   0.48276   0.03289
C          C       0.85477   0.62456   0.42949  -0.07980
C          C       0.02538   0.65033   0.47917  -0.12518
C          C       0.08349   0.71107   0.45193  -0.22230
C          C       0.25067   0.78841   0.55589   0.09562
C          C       0.89417   0.51072   0.53790   0.57208
C          C       0.33765   0.02061   0.57449   0.16604
C          C       0.24695   0.96229   0.59892  -0.19173
C          C       0.16379   0.81912   0.60092   0.09966
C          C       0.67139   0.43183   0.51284  -0.11920
C          C       0.33463   0.92986   0.55223  -0.18552
C          C       0.58805   0.41518   0.48757  -0.09607
C          C       0.44389   0.17209   0.57172  -0.20827
C          C       0.44151   0.20629   0.04262   0.04728
C          C       0.30196   0.00106   0.07329   0.27318
C          C       0.52262   0.35230   0.03949  -0.12117
C          C       0.49478   0.18561   0.98949  -0.07700
C          C       0.42921   0.12037   0.01724   0.03296
C          C       0.37544   0.14522   0.07051  -0.07971
C          C       0.34967   0.97462   0.02083  -0.12535
C          C       0.28893   0.91651   0.04808  -0.22233
C          C       0.21160   0.74933   0.94411   0.09568
C          C       0.48928   0.10583   0.96210   0.57220
C          C       0.97940   0.66235   0.92551   0.16621
C          C       0.03770   0.75304   0.90109  -0.19164
C          C       0.18088   0.83621   0.89908   0.09931
C          C       0.56817   0.32860   0.98716  -0.11910
C          C       0.07014   0.66536   0.94778  -0.18549
C          C       0.58482   0.41195   0.01243  -0.09596
C          C       0.82791   0.55611   0.92829  -0.20841
C          C       0.79396   0.23551   0.70924   0.04676
C          C      -0.00097   0.30106   0.73994   0.27341
C          C       0.64798   0.17074   0.70609  -0.12148
C          C       0.81495   0.30971   0.65609  -0.07668
C          C       0.88000   0.30916   0.68385   0.03349
C          C       0.85486   0.23043   0.73714  -0.07999
C          C       0.02572   0.37540   0.68747  -0.12552
C          C       0.08368   0.37272   0.71473  -0.22161
C          C       0.24985   0.46224   0.61044   0.09614
C          C       0.89485   0.38399   0.62866   0.57313
C          C       0.33709   0.31681   0.59219   0.16685
C          C       0.24653   0.28365   0.56771  -0.19221
C          C       0.16327   0.34338   0.56552   0.09949
C          C       0.67193   0.24031   0.65377  -0.12035
C          C       0.33384   0.40502   0.61430  -0.18539
C          C       0.58848   0.17352   0.67904  -0.09599
C          C       0.44339   0.27185   0.59517  -0.20808
C          C       0.76456   0.55862   0.37589   0.04748
C          C       0.69901   0.69808   0.40658   0.27463
C          C       0.82935   0.47750   0.37276  -0.12165
C          C       0.69045   0.50528   0.32277  -0.07696
C          C       0.69090   0.57091   0.35051   0.03330
C          C       0.76961   0.62464   0.40378  -0.08092
C          C       0.62471   0.65037   0.35413  -0.12519
C          C       0.62742   0.71108   0.38138  -0.22271
C          C       0.53774   0.78788   0.27726   0.09576
C          C       0.61619   0.51077   0.29536   0.57330
C          C       0.68289   0.02053   0.25886   0.16639
C          C       0.71579   0.96284   0.23442  -0.19158
C          C       0.65609   0.81976   0.23229   0.10008
C          C       0.75984   0.43177   0.32045  -0.11950
C          C       0.59493   0.92921   0.28105  -0.18554
C          C       0.82660   0.41516   0.34572  -0.09513
C          C       0.72797   0.17191   0.26173  -0.20845
N          N       0.43358   0.16659   0.41383  -0.22927
N          N       0.73302   0.56614   0.74698  -0.22997
N          N       0.83273   0.26707   0.08011  -0.22956
N          N       0.73293   0.16727   0.41989  -0.22956
N          N       0.83341   0.56642   0.08617  -0.22919
N          N       0.43385   0.26698   0.75301  -0.22981
N          N       0.56643   0.83340   0.91383  -0.22973
N          N       0.26699   0.43385   0.24698  -0.22985
N          N       0.16727   0.73292   0.58011  -0.22936
N          N       0.26708   0.83272   0.91989  -0.22931
N          N       0.16660   0.43357   0.58617  -0.22957
N          N       0.56615   0.73301   0.25302  -0.22965
O          O       0.32196   0.86053   0.39692  -0.54892
O          O       0.50934   0.99416   0.36970  -0.54577
O          O       0.29597   0.05381   0.23328  -0.44585
O          O       0.53851   0.67807   0.73023  -0.54763
O          O       0.48468   0.49084   0.70298  -0.54464
O          O       0.75787   0.70398   0.56662  -0.44675
O          O       0.13946   0.46117   0.06351  -0.54605
O          O       0.00682   0.51576   0.03624  -0.54414
O          O       0.94618   0.24213   0.89993  -0.44465
O          O       0.53883   0.86054   0.43649  -0.54601
O          O       0.48424   0.99317   0.46376  -0.54439
O          O       0.75787   0.05383   0.60008  -0.44459
O          O       0.13947   0.67804   0.10308  -0.54900
O          O       0.00584   0.49067   0.13030  -0.54571
O          O       0.94619   0.70403   0.26672  -0.44576
O          O       0.32194   0.46148   0.76977  -0.54832
O          O       0.50918   0.51531   0.79701  -0.54496
O          O       0.29602   0.24213   0.93338  -0.44647
O          O       0.67805   0.13946   0.89692  -0.54863
O          O       0.49067   0.00583   0.86970  -0.54604
O          O       0.70404   0.94618   0.73328  -0.44579
O          O       0.46149   0.32193   0.23023  -0.54773
O          O       0.51532   0.50915   0.20298  -0.54517
O          O       0.24213   0.29602   0.06662  -0.44645
O          O       0.86055   0.53882   0.56351  -0.54621
O          O       0.99318   0.48423   0.53624  -0.54373
O          O       0.05383   0.75786   0.39992  -0.44507
O          O       0.46118   0.13945   0.93649  -0.54657
O          O       0.51577   0.00682   0.96376  -0.54357
O          O       0.24213   0.94617   0.10008  -0.44494
O          O       0.86054   0.32195   0.60308  -0.54895
O          O       0.99417   0.50933   0.63030  -0.54586
O          O       0.05382   0.29597   0.76672  -0.44549
O          O       0.67807   0.53851   0.26977  -0.54783
O          O       0.49083   0.48468   0.29701  -0.54532
O          O       0.70398   0.75786   0.43338  -0.44627

