data_crystal

_audit_creation_method 'AiiDA-DDEC plugin'

_cell_length_a        18.42389
_cell_length_b        18.57256
_cell_length_c        37.93145

_cell_angle_alpha     78.07828
_cell_angle_beta     75.81725
_cell_angle_gamma     60.18635

_symmetry_space_group_name_Hall 'P 1'
_symmetry_space_group_name_H-M  'P 1'

loop_
_symmetry_equiv_pos_as_xyz
 'x,y,z'

loop_
_atom_site_label
_atom_site_type_symbol
_atom_site_fract_x
_atom_site_fract_y
_atom_site_fract_z
_atom_site_charge
Cu         Cu      0.18504   0.21572   0.77522   0.92079
Cu         Cu      0.25370   0.27241   0.72156   0.92199
Cu         Cu      0.24726   0.71200   0.72287   0.92198
Cu         Cu      0.67604   0.28396   0.72492   0.91980
Cu         Cu      0.74725   0.22713   0.77849   0.92077
Cu         Cu      0.18125   0.78899   0.77706   0.92012
Cu         Cu      0.81496   0.78428   0.22478   0.92083
Cu         Cu      0.74630   0.72760   0.27844   0.92185
Cu         Cu      0.75275   0.28800   0.27713   0.92202
Cu         Cu      0.32397   0.71605   0.27507   0.91973
Cu         Cu      0.25275   0.77287   0.22150   0.92090
Cu         Cu      0.81876   0.21102   0.22294   0.92009
H          H       0.24983   0.98220   0.74407   0.14213
H          H       0.95117   0.28068   0.74479   0.14234
H          H       0.06266   0.85837   0.65323   0.13674
H          H       0.83054   0.38491   0.64953   0.13585
H          H       0.07031   0.37566   0.64868   0.13339
H          H       0.36686   0.84741   0.64896   0.13522
H          H       0.94537   0.98764   0.75000   0.14132
H          H       0.37129   0.07801   0.64903   0.13484
H          H       0.83083   0.09264   0.65308   0.13587
H          H       0.81499   0.52427   0.41184   0.10583
H          H       0.76931   0.76948   0.44299   0.10994
H          H       0.52646   0.04241   0.58119   0.09380
H          H       0.48457   0.28716   0.46474   0.10543
H          H       0.22062   0.75101   0.57073   0.10485
H          H       0.05874   0.77381   0.42403   0.10794
H          H       0.06119   0.81977   0.56352   0.09496
H          H       0.81029   0.52252   0.55871   0.09558
H          H       0.59149   0.13006   0.45507   0.09664
H          H       0.75291   0.06346   0.45792   0.10895
H          H       0.75436   0.42963   0.54364   0.10895
H          H       0.68577   0.96984   0.58926   0.10835
H          H       0.70776   0.67554   0.57480   0.10732
H          H       0.42544   0.19532   0.59705   0.10677
H          H       0.86997   0.61214   0.43237   0.09395
H          H       0.29016   0.79438   0.43492   0.11164
H          H       0.86866   0.97959   0.49501   0.09204
H          H       0.12863   0.85976   0.43327   0.09657
H          H       0.75445   0.42521   0.43053   0.09710
H          H       0.72474   0.37803   0.49587   0.09413
H          H       0.37079   0.70738   0.53997   0.09584
H          H       0.64154   0.82731   0.55277   0.09539
H          H       0.35443   0.34667   0.57404   0.09501
H          H       0.38223   0.39182   0.50853   0.09904
H          H       0.99259   0.72769   0.55993   0.10940
H          H       0.94879   0.66901   0.52024   0.09817
H          H       0.98074   0.69319   0.45293   0.09350
H          H       0.83540   0.93375   0.56024   0.09700
H          H       0.67205   0.87384   0.48748   0.09502
H          H       0.40523   0.72956   0.47276   0.09970
H          H       0.47568   0.51792   0.75610   0.14130
H          H       0.47769   0.21834   0.75530   0.14157
H          H       0.07466   0.64117   0.84671   0.13791
H          H       0.36506   0.11430   0.85052   0.13537
H          H       0.59397   0.12465   0.85166   0.13152
H          H       0.36252   0.65345   0.85106   0.13537
H          H       0.18366   0.51230   0.74986   0.14092
H          H       0.59753   0.42182   0.85102   0.13058
H          H       0.07613   0.40771   0.84680   0.13524
H          H       0.25045   0.97569   0.08831   0.10534
H          H       0.48178   0.73050   0.05711   0.10995
H          H       0.65065   0.45738   0.91871   0.09478
H          H       0.73650   0.21275   0.03521   0.10559
H          H       0.04305   0.74858   0.92912   0.10566
H          H       0.75609   0.72615   0.07600   0.10797
H          H       0.94481   0.68021   0.93644   0.09568
H          H       0.39188   0.97750   0.94144   0.09630
H          H       0.67660   0.36982   0.04480   0.09666
H          H       0.77412   0.43646   0.04189   0.10919
H          H       0.22777   0.07057   0.95655   0.10959
H          H       0.74544   0.52996   0.91056   0.10824
H          H       0.45880   0.82451   0.92533   0.10737
H          H       0.71867   0.30446   0.90290   0.10703
H          H       0.41422   0.88783   0.06774   0.09403
H          H       0.01912   0.70554   0.06494   0.11102
H          H       0.84294   0.52057   0.00476   0.09251
H          H       0.92139   0.64021   0.06668   0.09571
H          H       0.10942   0.07483   0.06969   0.09670
H          H       0.09826   0.12219   0.00435   0.09403
H          H       0.11837   0.79244   0.95982   0.09619
H          H       0.52193   0.67277   0.94739   0.09538
H          H       0.77551   0.15320   0.92599   0.09549
H          H       0.78256   0.10811   0.99148   0.09855
H          H       0.78032   0.77269   0.94014   0.10986
H          H       0.63775   0.83120   0.97990   0.09929
H          H       0.62627   0.80674   0.04722   0.09186
H          H       0.82944   0.56633   0.93955   0.09760
H          H       0.53333   0.62622   0.01266   0.09490
H          H       0.10722   0.77047   0.02702   0.09883
H          H       0.75017   0.01781   0.25593   0.14246
H          H       0.04884   0.71933   0.25520   0.14262
H          H       0.93735   0.14163   0.34676   0.13663
H          H       0.16946   0.61509   0.35047   0.13595
H          H       0.92969   0.62434   0.35132   0.13303
H          H       0.63314   0.15260   0.35104   0.13518
H          H       0.05463   0.01236   0.24999   0.14148
H          H       0.62871   0.92199   0.35097   0.13434
H          H       0.16918   0.90737   0.34692   0.13578
H          H       0.18502   0.47573   0.58815   0.10552
H          H       0.23070   0.23053   0.55701   0.10960
H          H       0.47354   0.95759   0.41881   0.09424
H          H       0.51543   0.71284   0.53526   0.10513
H          H       0.77939   0.24899   0.42926   0.10534
H          H       0.94126   0.22619   0.57597   0.10755
H          H       0.93881   0.18023   0.43648   0.09529
H          H       0.18971   0.47749   0.44129   0.09595
H          H       0.40851   0.86994   0.54493   0.09610
H          H       0.24710   0.93655   0.54208   0.10849
H          H       0.24565   0.57037   0.45636   0.10925
H          H       0.31423   0.03016   0.41074   0.10866
H          H       0.29224   0.32447   0.42520   0.10774
H          H       0.57456   0.80468   0.40295   0.10716
H          H       0.13003   0.38786   0.56762   0.09372
H          H       0.70985   0.20562   0.56507   0.11132
H          H       0.13134   0.02041   0.50498   0.09189
H          H       0.87138   0.14025   0.56673   0.09615
H          H       0.24556   0.57479   0.56947   0.09707
H          H       0.27526   0.62198   0.50413   0.09435
H          H       0.62921   0.29263   0.46003   0.09589
H          H       0.35847   0.17269   0.44723   0.09553
H          H       0.64557   0.65334   0.42596   0.09518
H          H       0.61778   0.60819   0.49146   0.09878
H          H       0.00741   0.27231   0.44007   0.10986
H          H       0.05122   0.33099   0.47976   0.09850
H          H       0.01927   0.30681   0.54707   0.09350
H          H       0.16460   0.06626   0.43976   0.09713
H          H       0.32796   0.12617   0.51252   0.09483
H          H       0.59477   0.27044   0.52723   0.09938
H          H       0.52432   0.48209   0.24390   0.14115
H          H       0.52232   0.78166   0.24469   0.14139
H          H       0.92534   0.35884   0.15329   0.13794
H          H       0.63495   0.88570   0.14948   0.13575
H          H       0.40604   0.87536   0.14833   0.13145
H          H       0.63748   0.34655   0.14894   0.13551
H          H       0.81634   0.48771   0.25014   0.14072
H          H       0.40247   0.57818   0.14898   0.13067
H          H       0.92387   0.59230   0.15320   0.13569
H          H       0.74956   0.02431   0.91169   0.10564
H          H       0.51823   0.26950   0.94288   0.11017
H          H       0.34936   0.54262   0.08128   0.09447
H          H       0.26350   0.78725   0.96479   0.10599
H          H       0.95695   0.25143   0.07088   0.10524
H          H       0.24392   0.27385   0.92399   0.10821
H          H       0.05520   0.31979   0.06355   0.09544
H          H       0.60812   0.02251   0.05856   0.09608
H          H       0.32341   0.63019   0.95520   0.09693
H          H       0.22589   0.56354   0.95810   0.10946
H          H       0.77224   0.92943   0.04344   0.10926
H          H       0.25457   0.47004   0.08944   0.10794
H          H       0.54120   0.17550   0.07467   0.10695
H          H       0.28134   0.69554   0.09709   0.10669
H          H       0.58578   0.11218   0.93226   0.09433
H          H       0.98089   0.29446   0.93506   0.11134
H          H       0.15707   0.47944   0.99523   0.09251
H          H       0.07862   0.35980   0.93332   0.09592
H          H       0.89058   0.92518   0.93031   0.09702
H          H       0.90174   0.87782   0.99564   0.09405
H          H       0.88164   0.20757   0.04018   0.09586
H          H       0.47808   0.32724   0.05261   0.09536
H          H       0.22449   0.84680   0.07401   0.09542
H          H       0.21745   0.89189   0.00851   0.09873
H          H       0.21968   0.22731   0.05986   0.10946
H          H       0.36225   0.16880   0.02009   0.09923
H          H       0.37374   0.19326   0.95278   0.09208
H          H       0.17056   0.43368   0.06045   0.09718
H          H       0.46667   0.37379   0.98734   0.09501
H          H       0.89278   0.22953   0.97297   0.09873
C          C       0.27828   0.84555   0.71760   0.58803
C          C       0.81438   0.12148   0.72215   0.58534
C          C       0.98089   0.98834   0.53879   0.04180
C          C       0.44746   0.96224   0.57515  -0.06994
C          C       0.81521   0.31029   0.71889   0.58617
C          C       0.88338   0.33229   0.69923  -0.03184
C          C       0.30946   0.03688   0.69867  -0.03272
C          C       0.09072   0.29984   0.71751   0.58612
C          C       0.98179   0.47423   0.53790   0.03967
C          C       0.47717   0.97706   0.53772   0.04168
C          C       0.28589   0.97598   0.71655  -0.09275
C          C       0.95055   0.31082   0.71704  -0.09404
C          C       0.30725   0.90782   0.69857  -0.03320
C          C       0.01062   0.91047   0.66732  -0.11910
C          C       0.08234   0.85145   0.72207   0.58724
C          C       0.41657   0.95806   0.60746  -0.12129
C          C       0.91681   0.51861   0.51639   0.00688
C          C       0.28163   0.11168   0.71750   0.58674
C          C       0.88273   0.36964   0.66314  -0.12075
C          C       0.01760   0.36405   0.66274  -0.11742
C          C       0.35174   0.90023   0.66272  -0.12023
C          C       0.00976   0.91529   0.70371  -0.03367
C          C       0.63610   0.03608   0.53965   0.03232
C          C       0.94473   0.98313   0.72201  -0.09433
C          C       0.96508   0.44698   0.57525  -0.06580
C          C       0.35434   0.02973   0.66292  -0.12067
C          C       0.88020   0.04630   0.70361  -0.03111
C          C       0.03488   0.91956   0.51829   0.00254
C          C       0.01762   0.32669   0.69873  -0.03246
C          C       0.95035   0.38566   0.64436   0.12988
C          C       0.96470   0.97856   0.57731  -0.06716
C          C       0.51714   0.02823   0.52679   0.00433
C          C       0.80013   0.50631   0.50448   0.04099
C          C       0.88051   0.04221   0.66718  -0.12038
C          C       0.95449   0.42011   0.60733  -0.12116
C          C       0.81740   0.53281   0.46739   0.03744
C          C       0.80118   0.50402   0.44060  -0.14863
C          C       0.65510   0.06225   0.50268   0.03466
C          C       0.46216   0.94786   0.51006   0.00581
C          C       0.51280   0.18314   0.50652   0.03749
C          C       0.06559   0.45579   0.52055   0.00412
C          C       0.94588   0.06883   0.51967   0.00699
C          C       0.75605   0.74898   0.47172  -0.13486
C          C       0.37553   0.96146   0.64438   0.13229
C          C       0.54159   0.06297   0.55243  -0.08291
C          C       0.17201   0.79649   0.51991   0.03820
C          C       0.47226   0.26725   0.49363  -0.13493
C          C       0.19167   0.80836   0.48167   0.04054
C          C       0.23595   0.76022   0.54111  -0.14752
C          C       0.04447   0.76364   0.45365  -0.14842
C          C       0.94657   0.97460   0.64850   0.13115
C          C       0.95289   0.97472   0.61061  -0.12171
C          C       0.06853   0.79642   0.47584   0.03555
C          C       0.77588   0.63803   0.52121   0.03424
C          C       0.07717   0.82805   0.53370  -0.08469
C          C       0.82315   0.54333   0.52977  -0.08516
C          C       0.04919   0.78414   0.51407   0.03494
C          C       0.57684   0.11037   0.48401  -0.08428
C          C       0.73839   0.04259   0.48647  -0.13642
C          C       0.76676   0.45084   0.51494  -0.13714
C          C       0.70045   0.99015   0.56061  -0.14880
C          C       0.72125   0.69607   0.54607  -0.14948
C          C       0.49504   0.15744   0.54368   0.03793
C          C       0.43874   0.21558   0.56825  -0.15235
C          C       0.85551   0.59194   0.46125  -0.08261
C          C       0.79339   0.66441   0.48413   0.03381
C          C       0.27523   0.78427   0.46450  -0.13904
C          C       0.80330   0.99591   0.50745  -0.08206
C          C       0.11360   0.84986   0.46304  -0.08389
C          C       0.76715   0.44842   0.45117  -0.09559
C          C       0.75015   0.42190   0.48805  -0.08877
C          C       0.32018   0.73564   0.52378  -0.09510
C          C       0.68400   0.78128   0.53362  -0.09023
C          C       0.39897   0.30035   0.55533  -0.09238
C          C       0.41502   0.32601   0.51825  -0.08882
C          C       0.00694   0.73775   0.53032  -0.13761
C          C       0.98254   0.70474   0.50801  -0.07897
C          C       0.00068   0.71815   0.47001  -0.09325
C          C       0.78447   0.96994   0.54425  -0.09254
C          C       0.70124   0.80756   0.49674  -0.07907
C          C       0.33978   0.74771   0.48576  -0.08392
C          C       0.34056   0.65495   0.78250   0.58809
C          C       0.15804   0.37836   0.77786   0.58428
C          C       0.00814   0.51164   0.96121   0.04133
C          C       0.48489   0.53784   0.92480  -0.06919
C          C       0.34502   0.18895   0.78109   0.58610
C          C       0.41532   0.16692   0.80083  -0.03252
C          C       0.54425   0.46319   0.80146  -0.03231
C          C       0.60819   0.19968   0.78273   0.58626
C          C       0.49401   0.02576   0.96215   0.04001
C          C       0.49205   0.52294   0.96223   0.04261
C          C       0.47771   0.52430   0.78359  -0.09167
C          C       0.47894   0.18840   0.78308  -0.09086
C          C       0.41282   0.59267   0.80154  -0.03306
C          C       0.08868   0.58928   0.83259  -0.12082
C          C       0.15549   0.64911   0.77778   0.58764
C          C       0.48163   0.54235   0.89254  -0.12236
C          C       0.45192   0.98135   0.98370   0.00627
C          C       0.61004   0.38823   0.78260   0.58551
C          C       0.41556   0.12973   0.83695  -0.11984
C          C       0.54407   0.13589   0.83751  -0.11834
C          C       0.41394   0.60037   0.83733  -0.12010
C          C       0.12892   0.58474   0.79613  -0.03342
C          C       0.71225   0.46370   0.96019   0.03379
C          C       0.15023   0.51685   0.77785  -0.09375
C          C       0.48730   0.05296   0.92485  -0.06377
C          C       0.54620   0.47035   0.83716  -0.11826
C          C       0.13031   0.45371   0.79626  -0.03085
C          C       0.97289   0.58042   0.98168   0.00344
C          C       0.54314   0.17288   0.80149  -0.03293
C          C       0.48006   0.11404   0.85580   0.13105
C          C       0.02087   0.52130   0.92269  -0.06831
C          C       0.57232   0.47172   0.97314   0.00230
C          C       0.31093   0.99371   0.99567   0.03958
C          C       0.08992   0.45787   0.83271  -0.12063
C          C       0.48145   0.07975   0.89282  -0.12239
C          C       0.31742   0.96717   0.03276   0.03815
C          C       0.24534   0.99596   0.05956  -0.14769
C          C       0.72025   0.43755   0.99715   0.03510
C          C       0.42005   0.55220   0.98999   0.00638
C          C       0.70279   0.31672   0.99339   0.03708
C          C       0.54196   0.04426   0.97937   0.00301
C          C       0.03439   0.43119   0.98035   0.00658
C          C       0.47681   0.75100   0.02839  -0.13482
C          C       0.48066   0.53896   0.85565   0.13290
C          C       0.65747   0.43685   0.94746  -0.08386
C          C       0.98872   0.70329   0.97999   0.03908
C          C       0.73328   0.23263   0.00632  -0.13473
C          C       0.98176   0.69147   0.01823   0.03743
C          C       0.03768   0.73953   0.95874  -0.14727
C          C       0.76139   0.73637   0.04639  -0.14821
C          C       0.06994   0.52517   0.85146   0.13119
C          C       0.03863   0.52494   0.88939  -0.12010
C          C       0.84064   0.70366   0.02416   0.03471
C          C       0.43550   0.86196   0.97890   0.03321
C          C       0.93919   0.67192   0.96625  -0.08464
C          C       0.39652   0.95664   0.97036  -0.08477
C          C       0.84744   0.71601   0.98593   0.03268
C          C       0.67137   0.38948   0.01587  -0.08645
C          C       0.76740   0.45734   0.01335  -0.13759
C          C       0.23251   0.04926   0.98524  -0.13802
C          C       0.75160   0.50971   0.93920  -0.14621
C          C       0.46384   0.80396   0.95405  -0.14685
C          C       0.69670   0.34239   0.95624   0.03828
C          C       0.72314   0.28424   0.93171  -0.15149
C          C       0.40864   0.90802   0.03886  -0.08341
C          C       0.44210   0.83557   0.01598   0.03440
C          C       0.02383   0.71565   0.03536  -0.13443
C          C       0.80654   0.50414   0.99234  -0.08201
C          C       0.92641   0.65011   0.03691  -0.08290
C          C       0.16620   0.05163   0.04903  -0.09524
C          C       0.15978   0.07825   0.01215  -0.08878
C          C       0.07978   0.76418   0.97604  -0.09499
C          C       0.49920   0.71877   0.96651  -0.09148
C          C       0.75499   0.19952   0.94467  -0.09345
C          C       0.75941   0.17389   0.98174  -0.08900
C          C       0.77499   0.76248   0.96975  -0.13592
C          C       0.69504   0.79544   0.99209  -0.08292
C          C       0.68841   0.78187   0.03009  -0.08938
C          C       0.79875   0.53007   0.95555  -0.09497
C          C       0.50564   0.69247   0.00339  -0.07922
C          C       0.07311   0.75224   0.01406  -0.08553
C          C       0.72172   0.15445   0.28240   0.58782
C          C       0.18563   0.87852   0.27785   0.58549
C          C       0.01911   0.01166   0.46121   0.04173
C          C       0.55254   0.03776   0.42485  -0.07012
C          C       0.18480   0.68972   0.28110   0.58583
C          C       0.11662   0.66771   0.30076  -0.03135
C          C       0.69055   0.96312   0.30132  -0.03273
C          C       0.90929   0.70017   0.28249   0.58607
C          C       0.01822   0.52577   0.46210   0.03981
C          C       0.52283   0.02295   0.46228   0.04164
C          C       0.71411   0.02402   0.28344  -0.09269
C          C       0.04945   0.68918   0.28295  -0.09400
C          C       0.69275   0.09219   0.30142  -0.03310
C          C       0.98938   0.08954   0.33267  -0.11919
C          C       0.91767   0.14856   0.27792   0.58725
C          C       0.58343   0.04194   0.39254  -0.12114
C          C       0.08319   0.48140   0.48361   0.00691
C          C       0.71838   0.88833   0.28250   0.58663
C          C       0.11728   0.63036   0.33686  -0.12104
C          C       0.98240   0.63595   0.33725  -0.11738
C          C       0.64827   0.09977   0.33727  -0.12016
C          C       0.99025   0.08471   0.29628  -0.03354
C          C       0.36390   0.96392   0.46035   0.03254
C          C       0.05527   0.01687   0.27799  -0.09431
C          C       0.03493   0.55302   0.42474  -0.06602
C          C       0.64566   0.97028   0.33707  -0.12053
C          C       0.11980   0.95370   0.29638  -0.03096
C          C       0.96513   0.08044   0.48171   0.00265
C          C       0.98238   0.67331   0.30127  -0.03257
C          C       0.04966   0.61434   0.35564   0.12964
C          C       0.03530   0.02144   0.42269  -0.06736
C          C       0.48287   0.97178   0.47321   0.00449
C          C       0.19988   0.49370   0.49552   0.04118
C          C       0.11949   0.95780   0.33281  -0.12059
C          C       0.04551   0.57989   0.39267  -0.12076
C          C       0.18260   0.46719   0.53261   0.03728
C          C       0.19882   0.49598   0.55940  -0.14871
C          C       0.34490   0.93775   0.49732   0.03449
C          C       0.53784   0.05214   0.48994   0.00606
C          C       0.48720   0.81687   0.49348   0.03739
C          C       0.93441   0.54421   0.47944   0.00413
C          C       0.05412   0.93117   0.48032   0.00727
C          C       0.24395   0.25102   0.52827  -0.13512
C          C       0.62447   0.03854   0.35561   0.13222
C          C       0.45842   0.93704   0.44756  -0.08313
C          C       0.82799   0.20352   0.48009   0.03819
C          C       0.52775   0.73275   0.50636  -0.13523
C          C       0.80834   0.19164   0.51833   0.04073
C          C       0.76406   0.23979   0.45888  -0.14766
C          C       0.95553   0.23636   0.54635  -0.14861
C          C       0.05344   0.02541   0.35150   0.13131
C          C       0.04711   0.02529   0.38939  -0.12152
C          C       0.93147   0.20358   0.52416   0.03580
C          C       0.22412   0.36198   0.47879   0.03413
C          C       0.92283   0.17195   0.46629  -0.08441
C          C       0.17686   0.45667   0.47023  -0.08494
C          C       0.95081   0.21586   0.48592   0.03483
C          C       0.42317   0.88964   0.51599  -0.08408
C          C       0.26161   0.95742   0.51353  -0.13626
C          C       0.23324   0.54916   0.48505  -0.13695
C          C       0.29955   0.00986   0.43938  -0.14872
C          C       0.27876   0.30393   0.45392  -0.14943
C          C       0.50497   0.84257   0.45632   0.03814
C          C       0.56127   0.78443   0.43175  -0.15224
C          C       0.14449   0.40807   0.53875  -0.08275
C          C       0.20662   0.33560   0.51587   0.03388
C          C       0.72477   0.21573   0.53549  -0.13937
C          C       0.19671   0.00409   0.49254  -0.08234
C          C       0.88640   0.15015   0.53695  -0.08392
C          C       0.23285   0.55158   0.54883  -0.09566
C          C       0.24985   0.57810   0.51195  -0.08868
C          C       0.67983   0.26436   0.47622  -0.09508
C          C       0.31600   0.21872   0.46638  -0.09020
C          C       0.60104   0.69966   0.44467  -0.09236
C          C       0.58498   0.67400   0.48175  -0.08885
C          C       0.99306   0.26226   0.46968  -0.13775
C          C       0.01747   0.29526   0.49198  -0.07859
C          C      -0.00067   0.28185   0.52998  -0.09334
C          C       0.21553   0.03006   0.45575  -0.09248
C          C       0.29876   0.19244   0.50326  -0.07912
C          C       0.66022   0.25229   0.51424  -0.08383
C          C       0.65944   0.34505   0.21750   0.58791
C          C       0.84196   0.62164   0.22214   0.58433
C          C       0.99187   0.48836   0.03878   0.04122
C          C       0.51511   0.46216   0.07520  -0.06890
C          C       0.65499   0.81105   0.21891   0.58634
C          C       0.58469   0.83309   0.19917  -0.03230
C          C       0.45576   0.53681   0.19854  -0.03236
C          C       0.39182   0.80032   0.21727   0.58623
C          C       0.50600   0.97424   0.03784   0.04018
C          C       0.50795   0.47706   0.03777   0.04218
C          C       0.52229   0.47571   0.21640  -0.09186
C          C       0.52107   0.81160   0.21691  -0.09139
C          C       0.58719   0.40733   0.19846  -0.03317
C          C       0.91133   0.41072   0.16741  -0.12102
C          C       0.84452   0.35090   0.22222   0.58820
C          C       0.51837   0.45766   0.10746  -0.12250
C          C       0.54809   0.01865   0.01629   0.00597
C          C       0.38997   0.61177   0.21740   0.58550
C          C       0.58444   0.87028   0.16305  -0.11980
C          C       0.45593   0.86412   0.16248  -0.11820
C          C       0.58607   0.39963   0.16266  -0.11998
C          C       0.87108   0.41527   0.20387  -0.03354
C          C       0.28775   0.53631   0.03981   0.03383
C          C       0.84978   0.48316   0.22215  -0.09382
C          C       0.51270   0.94705   0.07515  -0.06354
C          C       0.45380   0.52966   0.16283  -0.11811
C          C       0.86969   0.54629   0.20374  -0.03103
C          C       0.02712   0.41958   0.01832   0.00328
C          C       0.45687   0.82713   0.19851  -0.03287
C          C       0.51994   0.88597   0.14420   0.13088
C          C       0.97913   0.47870   0.07730  -0.06802
C          C       0.42768   0.52829   0.02685   0.00272
C          C       0.68907   0.00630   0.00432   0.04249
C          C       0.91009   0.54213   0.16728  -0.12065
C          C       0.51855   0.92026   0.10717  -0.12248
C          C       0.68259   0.03283   0.96724   0.03734
C          C       0.75467   0.00405   0.94043  -0.14773
C          C       0.27975   0.56246   0.00284   0.03507
C          C       0.57995   0.44780   0.01001   0.00660
C          C       0.29722   0.68329   0.00660   0.03724
C          C       0.45804   0.95574   0.02062   0.00281
C          C       0.96561   0.56881   0.01964   0.00646
C          C       0.52319   0.24900   0.97161  -0.13463
C          C       0.51934   0.46104   0.14434   0.13279
C          C       0.34253   0.56315   0.05253  -0.08432
C          C       0.01128   0.29671   0.02001   0.03898
C          C       0.26672   0.76737   0.99368  -0.13481
C          C       0.01824   0.30853   0.98177   0.03756
C          C       0.96233   0.26047   0.04126  -0.14711
C          C       0.23861   0.26363   0.95361  -0.14811
C          C       0.93006   0.47483   0.14854   0.13131
C          C       0.96137   0.47507   0.11060  -0.12031
C          C       0.15936   0.29635   0.97584   0.03483
C          C       0.56450   0.13804   0.02109   0.03304
C          C       0.06081   0.32808   0.03374  -0.08471
C          C       0.60348   0.04336   0.02964  -0.08581
C          C       0.15256   0.28399   0.01406   0.03245
C          C       0.32863   0.61053   0.98413  -0.08637
C          C       0.23260   0.54266   0.98665  -0.13732
C          C       0.76749   0.95074   0.01476  -0.13898
C          C       0.24840   0.49029   0.06079  -0.14623
C          C       0.53617   0.19604   0.04594  -0.14655
C          C       0.30330   0.65762   0.04376   0.03828
C          C       0.27687   0.71576   0.06829  -0.15137
C          C       0.59137   0.09198   0.96113  -0.08330
C          C       0.55790   0.16444   0.98401   0.03427
C          C       0.97617   0.28435   0.96464  -0.13441
C          C       0.19346   0.49587   0.00766  -0.08214
C          C       0.07360   0.34990   0.96309  -0.08283
C          C       0.83380   0.94837   0.95097  -0.09524
C          C       0.84023   0.92176   0.98784  -0.08877
C          C       0.92022   0.23583   0.02396  -0.09516
C          C       0.50081   0.28123   0.03348  -0.09179
C          C       0.24501   0.80049   0.05533  -0.09376
C          C       0.24060   0.82611   0.01825  -0.08867
C          C       0.22502   0.23753   0.03025  -0.13591
C          C       0.30497   0.20457   0.00790  -0.08280
C          C       0.31159   0.21814   0.96990  -0.08924
C          C       0.20125   0.46993   0.04444  -0.09511
C          C       0.49437   0.30754   0.99660  -0.07896
C          C       0.92689   0.24776   0.98594  -0.08558
O          O       0.82286   0.27365   0.75136  -0.54452
O          O       0.75581   0.32787   0.70167  -0.53681
O          O       0.30220   0.16734   0.69984  -0.53987
O          O       0.15122   0.31479   0.69967  -0.54002
O          O       0.14182   0.79298   0.70338  -0.54529
O          O       0.23757   0.11494   0.74957  -0.54045
O          O       0.08745   0.26262   0.74986  -0.53802
O          O       0.23568   0.85820   0.74992  -0.54644
O          O       0.29717   0.78511   0.69988  -0.53691
O          O       0.08029   0.86178   0.75475  -0.53449
O          O       0.75787   0.17817   0.70378  -0.53959
O          O       0.82113   0.12404   0.75463  -0.53946
O          O       0.34906   0.22526   0.74857  -0.54306
O          O       0.28559   0.17177   0.79835  -0.53809
O          O       0.66863   0.33234   0.80019  -0.53967
O          O       0.66510   0.18545   0.80075  -0.53959
O          O       0.13681   0.70787   0.79645  -0.54615
O          O       0.60133   0.38513   0.75054  -0.53930
O          O       0.60076   0.23613   0.75023  -0.53822
O          O       0.34319   0.64217   0.75021  -0.54601
O          O       0.28092   0.71547   0.80017  -0.53717
O          O       0.19699   0.63895   0.74513  -0.53509
O          O       0.13878   0.32229   0.79617  -0.54096
O          O       0.20085   0.37501   0.74551  -0.53877
O          O       0.17714   0.72636   0.24864  -0.54429
O          O       0.24419   0.67214   0.29833  -0.53701
O          O       0.69781   0.83267   0.30016  -0.54040
O          O       0.84879   0.68522   0.30032  -0.54056
O          O       0.85818   0.20702   0.29662  -0.54545
O          O       0.76243   0.88506   0.25042  -0.53980
O          O       0.91256   0.73739   0.25014  -0.53738
O          O       0.76432   0.14180   0.25008  -0.54620
O          O       0.70283   0.21489   0.30011  -0.53709
O          O       0.91971   0.13823   0.24524  -0.53424
O          O       0.24213   0.82184   0.29622  -0.53989
O          O       0.17887   0.87597   0.24536  -0.53930
O          O       0.65094   0.77475   0.25142  -0.54364
O          O       0.71441   0.82824   0.20164  -0.53770
O          O       0.33138   0.66767   0.19981  -0.53947
O          O       0.33490   0.81456   0.19924  -0.53936
O          O       0.86319   0.29214   0.20354  -0.54605
O          O       0.39868   0.61487   0.24945  -0.53955
O          O       0.39925   0.76388   0.24976  -0.53830
O          O       0.65682   0.35783   0.24979  -0.54615
O          O       0.71909   0.28453   0.19982  -0.53687
O          O       0.80301   0.36105   0.25487  -0.53556
O          O       0.86122   0.67771   0.20383  -0.54022
O          O       0.79916   0.62499   0.25449  -0.53943

