data_crystal

_audit_creation_method 'AiiDA-DDEC plugin'

_cell_length_a        11.75745
_cell_length_b        18.95682
_cell_length_c        22.02223

_cell_angle_alpha     89.99637
_cell_angle_beta     89.99091
_cell_angle_gamma     90.00000

_symmetry_space_group_name_Hall 'P 1'
_symmetry_space_group_name_H-M  'P 1'

loop_
_symmetry_equiv_pos_as_xyz
 'x,y,z'

loop_
_atom_site_label
_atom_site_type_symbol
_atom_site_fract_x
_atom_site_fract_y
_atom_site_fract_z
_atom_site_charge
Ag         Ag      0.28200   0.20637   0.65750   0.22769
Ag         Ag      0.78158   0.29379   0.34264   0.22781
Ag         Ag      0.78158   0.70619   0.84259   0.22797
Ag         Ag      0.28200   0.79364   0.15755   0.22785
Ag         Ag      0.21843   0.29381   0.15741   0.22790
Ag         Ag      0.71801   0.20636   0.84245   0.22778
Ag         Ag      0.71801   0.79362   0.34250   0.22770
Ag         Ag      0.21842   0.70621   0.65736   0.22779
H          H       0.54075   0.26169   0.68739   0.09701
H          H       0.43123   0.47180   0.65066   0.11212
H          H       0.83047   0.21454   0.68742   0.09748
H          H       0.09804   0.35653   0.64480   0.10680
H          H       0.97588   0.58911   0.64477   0.09686
H          H       0.68193   0.57242   0.75693   0.11811
H          H       0.64782   0.36852   0.45465   0.09078
H          H       0.92467   0.50996   0.48041   0.06429
H          H       0.72577   0.32732   0.71618   0.13315
H          H       0.70811   0.28938   0.64281   0.11612
H          H       0.88169   0.42258   0.73046   0.12072
H          H       0.96749   0.44791   0.66727   0.12111
H          H       0.61426   0.50626   0.67241   0.11141
H          H       0.67342   0.45433   0.73233   0.11217
H          H       0.62463   0.35854   0.55776   0.11660
H          H       0.58513   0.44873   0.56746   0.11363
H          H       0.93798   0.38968   0.56440   0.10059
H          H       0.83020   0.32454   0.55547   0.11694
H          H       0.73444   0.54111   0.58236   0.12067
H          H       0.88137   0.51840   0.58063   0.12125
H          H       0.04111   0.23831   0.31245   0.09798
H          H       0.93147   0.02825   0.34918   0.11316
H          H       0.33027   0.28537   0.31236   0.09753
H          H       0.59801   0.14372   0.35532   0.10709
H          H       0.47585   0.91054   0.35528   0.09612
H          H       0.18238   0.92764   0.24277   0.11729
H          H       0.14768   0.13209   0.54520   0.09108
H          H       0.42419   0.99031   0.51967   0.06427
H          H       0.22623   0.17262   0.28359   0.13269
H          H       0.20827   0.21055   0.35695   0.11577
H          H       0.38210   0.07720   0.26953   0.12065
H          H       0.46765   0.05198   0.33284   0.12165
H          H       0.11444   0.99372   0.32739   0.11060
H          H       0.17395   0.04550   0.26746   0.11118
H          H       0.12452   0.14162   0.44188   0.11568
H          H       0.08509   0.05141   0.43228   0.11323
H          H       0.43791   0.11023   0.43550   0.10018
H          H       0.33028   0.17550   0.44441   0.11676
H          H       0.23422   0.95900   0.41771   0.11959
H          H       0.38122   0.98156   0.41952   0.12066
H          H       0.04112   0.76169   0.81245   0.09813
H          H       0.93147   0.97174   0.84919   0.11311
H          H       0.33027   0.71463   0.81236   0.09744
H          H       0.59802   0.85626   0.85532   0.10711
H          H       0.47585   0.08945   0.85528   0.09615
H          H       0.18238   0.07236   0.74277   0.11721
H          H       0.14770   0.86788   0.04520   0.09104
H          H       0.42418   0.00968   0.01966   0.06419
H          H       0.22623   0.82738   0.78359   0.13271
H          H       0.20828   0.78944   0.85696   0.11578
H          H       0.38209   0.92280   0.76952   0.12068
H          H       0.46765   0.94802   0.83283   0.12176
H          H       0.11444   0.00627   0.82739   0.11045
H          H       0.17395   0.95450   0.76746   0.11113
H          H       0.12452   0.85836   0.94188   0.11584
H          H       0.08510   0.94858   0.93228   0.11305
H          H       0.43792   0.88975   0.93550   0.10031
H          H       0.33029   0.82448   0.94441   0.11705
H          H       0.23423   0.04099   0.91771   0.11935
H          H       0.38123   0.01843   0.91951   0.12072
H          H       0.54077   0.73830   0.18739   0.09695
H          H       0.43124   0.52820   0.15066   0.11227
H          H       0.83047   0.78545   0.18742   0.09754
H          H       0.09806   0.64348   0.14480   0.10681
H          H       0.97588   0.41089   0.14477   0.09674
H          H       0.68193   0.42757   0.25693   0.11816
H          H       0.64784   0.63150   0.95465   0.09055
H          H       0.92468   0.49005   0.98042   0.06447
H          H       0.72577   0.67267   0.21618   0.13315
H          H       0.70811   0.71062   0.14281   0.11614
H          H       0.88169   0.57741   0.23046   0.12053
H          H       0.96750   0.55209   0.16728   0.12101
H          H       0.61426   0.49374   0.17242   0.11160
H          H       0.67342   0.54567   0.23233   0.11219
H          H       0.62463   0.64147   0.05776   0.11660
H          H       0.58514   0.55128   0.06746   0.11350
H          H       0.93799   0.61033   0.06440   0.10065
H          H       0.83021   0.67547   0.05547   0.11694
H          H       0.73445   0.45890   0.08236   0.12069
H          H       0.88138   0.48161   0.08064   0.12119
H          H       0.95889   0.23830   0.18755   0.09796
H          H       0.06853   0.02826   0.15082   0.11316
H          H       0.66974   0.28537   0.18764   0.09749
H          H       0.40198   0.14374   0.14468   0.10714
H          H       0.52416   0.91055   0.14472   0.09592
H          H       0.81763   0.92764   0.25723   0.11735
H          H       0.85231   0.13212   0.95480   0.09121
H          H       0.57583   0.99032   0.98034   0.06421
H          H       0.77378   0.17261   0.21641   0.13274
H          H       0.79173   0.21055   0.14305   0.11574
H          H       0.61792   0.07720   0.23048   0.12078
H          H       0.53235   0.05198   0.16717   0.12159
H          H       0.88557   0.99373   0.17261   0.11065
H          H       0.82605   0.04550   0.23254   0.11117
H          H       0.87549   0.14164   0.05812   0.11580
H          H       0.91491   0.05142   0.06772   0.11320
H          H       0.56209   0.11024   0.06450   0.10016
H          H       0.66971   0.17552   0.05559   0.11687
H          H       0.76578   0.95901   0.08229   0.11951
H          H       0.61878   0.98157   0.08049   0.12053
H          H       0.45924   0.26169   0.81261   0.09696
H          H       0.56877   0.47180   0.84934   0.11214
H          H       0.16954   0.21455   0.81258   0.09760
H          H       0.90195   0.35652   0.85520   0.10660
H          H       0.02413   0.58911   0.85523   0.09665
H          H       0.31808   0.57242   0.74307   0.11826
H          H       0.35217   0.36850   0.04535   0.09073
H          H       0.07533   0.50995   0.01958   0.06443
H          H       0.27423   0.32733   0.78382   0.13313
H          H       0.29189   0.28938   0.85719   0.11631
H          H       0.11832   0.42259   0.76954   0.12058
H          H       0.03251   0.44791   0.83272   0.12088
H          H       0.38575   0.50625   0.82758   0.11167
H          H       0.32659   0.45433   0.76767   0.11213
H          H       0.37538   0.35853   0.94224   0.11683
H          H       0.41486   0.44872   0.93254   0.11360
H          H       0.06202   0.38966   0.93560   0.10044
H          H       0.16980   0.32452   0.94453   0.11706
H          H       0.26556   0.54110   0.91764   0.12080
H          H       0.11863   0.51838   0.91936   0.12101
H          H       0.45925   0.73831   0.31261   0.09700
H          H       0.56878   0.52820   0.34934   0.11215
H          H       0.16953   0.78545   0.31258   0.09755
H          H       0.90196   0.64347   0.35520   0.10679
H          H       0.02413   0.41088   0.35524   0.09663
H          H       0.31808   0.42758   0.24307   0.11816
H          H       0.35219   0.63147   0.54536   0.09085
H          H       0.07533   0.49004   0.51959   0.06428
H          H       0.27424   0.67267   0.28382   0.13313
H          H       0.29190   0.71062   0.35719   0.11610
H          H       0.11832   0.57741   0.26954   0.12057
H          H       0.03251   0.55209   0.33273   0.12104
H          H       0.38575   0.49374   0.32759   0.11162
H          H       0.32659   0.54567   0.26767   0.11210
H          H       0.37538   0.64146   0.44224   0.11661
H          H       0.41487   0.55127   0.43254   0.11380
H          H       0.06203   0.61032   0.43560   0.10045
H          H       0.16981   0.67546   0.44453   0.11695
H          H       0.26557   0.45889   0.41764   0.12082
H          H       0.11863   0.48160   0.41937   0.12112
H          H       0.95890   0.76169   0.68755   0.09796
H          H       0.06853   0.97175   0.65082   0.11313
H          H       0.66974   0.71463   0.68764   0.09761
H          H       0.40199   0.85627   0.64468   0.10698
H          H       0.52416   0.08946   0.64472   0.09594
H          H       0.81762   0.07235   0.75723   0.11744
H          H       0.85232   0.86790   0.45480   0.09127
H          H       0.57582   0.00969   0.48033   0.06412
H          H       0.77378   0.82738   0.71641   0.13270
H          H       0.79173   0.78945   0.64305   0.11583
H          H       0.61791   0.92280   0.73047   0.12074
H          H       0.53236   0.94802   0.66716   0.12137
H          H       0.88557   0.00627   0.67261   0.11067
H          H       0.82605   0.95450   0.73254   0.11121
H          H       0.87549   0.85837   0.55812   0.11585
H          H       0.91492   0.94859   0.56772   0.11328
H          H       0.56210   0.88977   0.56450   0.09997
H          H       0.66972   0.82449   0.55559   0.11686
H          H       0.76579   0.04100   0.58229   0.11963
H          H       0.61879   0.01844   0.58048   0.12043
C          C       0.48891   0.30845   0.67889   0.05839
C          C       0.43089   0.41596   0.66102   0.04830
C          C       0.91245   0.23516   0.67388   0.06089
C          C       0.04989   0.30887   0.65350   0.04279
C          C       0.90788   0.60178   0.67708   0.06839
C          C       0.75730   0.59229   0.73467   0.06136
C          C       0.73079   0.39303   0.45279  -0.02716
C          C       0.87480   0.46468   0.46627  -0.01599
C          C       0.64481   0.39630   0.64959   0.26816
C          C       0.73006   0.33808   0.66715  -0.31088
C          C       0.85030   0.36175   0.64823   0.26401
C          C       0.88199   0.43082   0.68107  -0.31903
C          C       0.79502   0.48812   0.66360   0.26666
C          C       0.67578   0.46451   0.68325  -0.32914
C          C       0.64776   0.40825   0.58033  -0.31906
C          C       0.76694   0.43144   0.56165   0.25321
C          C       0.85210   0.37383   0.57914  -0.32648
C          C       0.79657   0.50008   0.59441  -0.31757
C          C       0.98919   0.19164   0.32111   0.05781
C          C       0.93114   0.08413   0.33901   0.04452
C          C       0.41226   0.26486   0.32601   0.06080
C          C       0.54983   0.19134   0.34658   0.04229
C          C       0.40787   0.89800   0.32293   0.07086
C          C       0.25757   0.90773   0.26519   0.06297
C          C       0.23077   0.10771   0.54692  -0.03025
C          C       0.37450   0.03574   0.53367  -0.01481
C          C       0.14503   0.10368   0.35015   0.26867
C          C       0.23030   0.16186   0.33262  -0.31029
C          C       0.35045   0.13822   0.35164   0.26459
C          C       0.38223   0.06909   0.31893  -0.32204
C          C       0.29520   0.01180   0.33638   0.26953
C          C       0.17605   0.03543   0.31656  -0.32714
C          C       0.14778   0.09185   0.41943  -0.31720
C          C       0.26686   0.06868   0.43822   0.25202
C          C       0.35213   0.12621   0.42072  -0.32565
C          C       0.29651  -0.00007   0.40560  -0.31532
C          C       0.98919   0.80836   0.82111   0.05780
C          C       0.93114   0.91586   0.83901   0.04434
C          C       0.41225   0.73513   0.82601   0.06062
C          C       0.54983   0.80864   0.84658   0.04236
C          C       0.40787   0.10199   0.82292   0.07124
C          C       0.25756   0.09227   0.76518   0.06305
C          C       0.23078   0.89226   0.04692  -0.02974
C          C       0.37450   0.96425   0.03367  -0.01513
C          C       0.14504   0.89632   0.85015   0.26857
C          C       0.23030   0.83813   0.83262  -0.31019
C          C       0.35045   0.86178   0.85164   0.26458
C          C       0.38223   0.93091   0.81892  -0.32211
C          C       0.29520   0.98820   0.83637   0.26953
C          C       0.17605   0.96457   0.81656  -0.32715
C          C       0.14778   0.90813   0.91943  -0.31725
C          C       0.26687   0.93130   0.93822   0.25209
C          C       0.35214   0.87378   0.92072  -0.32605
C          C       0.29652   0.00006   0.90560  -0.31520
C          C       0.48892   0.69155   0.17889   0.05833
C          C       0.43089   0.58404   0.16102   0.04822
C          C       0.91245   0.76484   0.17388   0.06088
C          C       0.04989   0.69113   0.15350   0.04279
C          C       0.90788   0.39822   0.17709   0.06868
C          C       0.75730   0.40770   0.23468   0.06166
C          C       0.73080   0.60698   0.95279  -0.02722
C          C       0.87481   0.53533   0.96627  -0.01593
C          C       0.64482   0.60370   0.14959   0.26835
C          C       0.73007   0.66192   0.16715  -0.31107
C          C       0.85031   0.63825   0.14823   0.26410
C          C       0.88199   0.56918   0.18108  -0.31884
C          C       0.79502   0.51188   0.16360   0.26657
C          C       0.67578   0.53549   0.18326  -0.32915
C          C       0.64776   0.59176   0.08033  -0.31876
C          C       0.76695   0.56857   0.06165   0.25312
C          C       0.85211   0.62618   0.07915  -0.32668
C          C       0.79658   0.49993   0.09442  -0.31730
C          C       0.01081   0.19163   0.17889   0.05783
C          C       0.06887   0.08414   0.16099   0.04453
C          C       0.58775   0.26486   0.17399   0.06095
C          C       0.45017   0.19135   0.15343   0.04220
C          C       0.59214   0.89800   0.17708   0.07089
C          C       0.74245   0.90773   0.23482   0.06313
C          C       0.76923   0.10773   0.95308  -0.02982
C          C       0.62550   0.03575   0.96634  -0.01506
C          C       0.85497   0.10368   0.14985   0.26876
C          C       0.76970   0.16186   0.16738  -0.31027
C          C       0.64955   0.13822   0.14836   0.26457
C          C       0.61777   0.06909   0.18108  -0.32214
C          C       0.70481   0.01180   0.16363   0.26943
C          C       0.82396   0.03543   0.18344  -0.32711
C          C       0.85222   0.09186   0.08057  -0.31734
C          C       0.73314   0.06869   0.06178   0.25202
C          C       0.64787   0.12622   0.07928  -0.32591
C          C       0.70349  -0.00006   0.09440  -0.31511
C          C       0.51109   0.30845   0.82111   0.05833
C          C       0.56911   0.41596   0.83898   0.04808
C          C       0.08756   0.23516   0.82612   0.06121
C          C       0.95011   0.30887   0.84650   0.04272
C          C       0.09212   0.60178   0.82291   0.06848
C          C       0.24271   0.59230   0.76532   0.06188
C          C       0.26920   0.39301   0.04721  -0.02711
C          C       0.12520   0.46467   0.03373  -0.01648
C          C       0.35519   0.39630   0.85041   0.26841
C          C       0.26994   0.33808   0.83285  -0.31099
C          C       0.14970   0.36175   0.85177   0.26411
C          C       0.11801   0.43082   0.81892  -0.31916
C          C       0.20499   0.48812   0.83640   0.26657
C          C       0.32423   0.46451   0.81674  -0.32929
C          C       0.35224   0.40824   0.91967  -0.31881
C          C       0.23305   0.43143   0.93835   0.25313
C          C       0.14789   0.37382   0.92085  -0.32657
C          C       0.20343   0.50007   0.90559  -0.31734
C          C       0.51110   0.69155   0.32112   0.05806
C          C       0.56912   0.58404   0.33898   0.04831
C          C       0.08756   0.76484   0.32612   0.06112
C          C       0.95012   0.69112   0.34650   0.04279
C          C       0.09213   0.39822   0.32292   0.06850
C          C       0.24271   0.40770   0.26533   0.06158
C          C       0.26922   0.60696   0.54721  -0.02687
C          C       0.12521   0.53532   0.53374  -0.01620
C          C       0.35520   0.60370   0.35041   0.26819
C          C       0.26995   0.66192   0.33285  -0.31091
C          C       0.14971   0.63825   0.35177   0.26408
C          C       0.11802   0.56918   0.31893  -0.31908
C          C       0.20499   0.51188   0.33640   0.26652
C          C       0.32423   0.53549   0.31675  -0.32905
C          C       0.35225   0.59175   0.41967  -0.31897
C          C       0.23306   0.56856   0.43835   0.25335
C          C       0.14790   0.62617   0.42086  -0.32671
C          C       0.20344   0.49992   0.40559  -0.31734
C          C       0.01082   0.80836   0.67889   0.05772
C          C       0.06887   0.91586   0.66100   0.04415
C          C       0.58775   0.73513   0.67399   0.06108
C          C       0.45018   0.80865   0.65343   0.04208
C          C       0.59214   0.10200   0.67707   0.07095
C          C       0.74244   0.09226   0.73482   0.06313
C          C       0.76924   0.89229   0.45308  -0.03026
C          C       0.62551   0.96426   0.46633  -0.01514
C          C       0.85498   0.89632   0.64985   0.26863
C          C       0.76971   0.83813   0.66738  -0.31008
C          C       0.64956   0.86178   0.64836   0.26440
C          C       0.61778   0.93091   0.68108  -0.32205
C          C       0.70481   0.98820   0.66362   0.26976
C          C       0.82396   0.96457   0.68344  -0.32715
C          C       0.85223   0.90815   0.58057  -0.31729
C          C       0.73315   0.93132   0.56178   0.25198
C          C       0.64788   0.87379   0.57928  -0.32563
C          C       0.70350   0.00007   0.59440  -0.31539
N          N       0.37608   0.30915   0.68071  -0.15418
N          N       0.33862   0.37724   0.66964  -0.24147
N          N       0.52811   0.37526   0.66685  -0.04522
N          N       0.00687   0.19755   0.66995  -0.24941
N          N       0.09365   0.24447   0.65703  -0.15487
N          N       0.93410   0.30604   0.66413  -0.05009
N          N       0.89515   0.66227   0.70599  -0.19650
N          N       0.79996   0.65615   0.74274  -0.17374
N          N       0.82226   0.55570   0.69358  -0.04191
N          N       0.80462   0.38359   0.40702  -0.16376
N          N       0.89435   0.42864   0.41499  -0.24104
N          N       0.76982   0.44549   0.49313  -0.12919
N          N       0.87632   0.19105   0.31969  -0.15452
N          N       0.83889   0.12295   0.33073  -0.23949
N          N       0.02837   0.12477   0.33293  -0.04585
N          N       0.50647   0.30263   0.33020  -0.25040
N          N       0.59337   0.25582   0.34323  -0.15380
N          N       0.43414   0.19400   0.33572  -0.05148
N          N       0.39495   0.83751   0.29404  -0.19912
N          N       0.29996   0.84381   0.25718  -0.17287
N          N       0.32249   0.94423   0.30635  -0.04305
N          N       0.30468   0.11718   0.59266  -0.16085
N          N       0.39423   0.07196   0.58482  -0.24259
N          N       0.26951   0.05491   0.50680  -0.12948
N          N       0.87633   0.80895   0.81968  -0.15444
N          N       0.83890   0.87704   0.83073  -0.23984
N          N       0.02838   0.87523   0.83293  -0.04555
N          N       0.50647   0.69736   0.83020  -0.24986
N          N       0.59337   0.74416   0.84323  -0.15412
N          N       0.43415   0.80600   0.83572  -0.05131
N          N       0.39494   0.16249   0.79403  -0.19917
N          N       0.29996   0.15619   0.75717  -0.17343
N          N       0.32249   0.05577   0.80635  -0.04297
N          N       0.30468   0.88281   0.09267  -0.16113
N          N       0.39422   0.92803   0.08482  -0.24253
N          N       0.26952   0.94507   0.00679  -0.12928
N          N       0.37609   0.69085   0.18072  -0.15436
N          N       0.33863   0.62276   0.16964  -0.24121
N          N       0.52812   0.62474   0.16685  -0.04537
N          N       0.00686   0.80245   0.16995  -0.24959
N          N       0.09365   0.75553   0.15703  -0.15501
N          N       0.93411   0.69396   0.16413  -0.04988
N          N       0.89515   0.33772   0.20600  -0.19671
N          N       0.79996   0.34384   0.24275  -0.17375
N          N       0.82226   0.44429   0.19359  -0.04236
N          N       0.80463   0.61642   0.90701  -0.16398
N          N       0.89436   0.57136   0.91499  -0.24091
N          N       0.76984   0.55453   0.99314  -0.12890
N          N       0.12368   0.19105   0.18032  -0.15455
N          N       0.16111   0.12295   0.16927  -0.23937
N          N       0.97163   0.12477   0.16707  -0.04591
N          N       0.49354   0.30264   0.16980  -0.25016
N          N       0.40664   0.25584   0.15677  -0.15425
N          N       0.56586   0.19400   0.16428  -0.05133
N          N       0.60506   0.83751   0.20597  -0.19893
N          N       0.70005   0.84380   0.24283  -0.17325
N          N       0.67752   0.94423   0.19365  -0.04293
N          N       0.69533   0.11719   0.90733  -0.16099
N          N       0.60578   0.07197   0.91518  -0.24313
N          N       0.73048   0.05493   0.99321  -0.12887
N          N       0.62392   0.30915   0.81928  -0.15414
N          N       0.66138   0.37724   0.83036  -0.24071
N          N       0.47189   0.37525   0.83315  -0.04558
N          N       0.99314   0.19754   0.83005  -0.24941
N          N       0.90636   0.24447   0.84297  -0.15527
N          N       0.06590   0.30604   0.83587  -0.05000
N          N       0.10486   0.66228   0.79401  -0.19710
N          N       0.20005   0.65616   0.75725  -0.17368
N          N       0.17775   0.55571   0.80641  -0.04213
N          N       0.19538   0.38358   0.09299  -0.16351
N          N       0.10565   0.42864   0.08502  -0.24129
N          N       0.23017   0.44547   0.00686  -0.12874
N          N       0.62393   0.69085   0.31929  -0.15438
N          N       0.66139   0.62276   0.33036  -0.24080
N          N       0.47190   0.62474   0.33315  -0.04521
N          N       0.99314   0.80245   0.33005  -0.24965
N          N       0.90636   0.75552   0.34297  -0.15512
N          N       0.06590   0.69396   0.33587  -0.05011
N          N       0.10486   0.33772   0.29401  -0.19664
N          N       0.20005   0.34385   0.25726  -0.17357
N          N       0.17775   0.44429   0.30642  -0.04214
N          N       0.19538   0.61641   0.59298  -0.16379
N          N       0.10565   0.57135   0.58501  -0.24127
N          N       0.23019   0.55451   0.50687  -0.12892
N          N       0.12369   0.80895   0.68031  -0.15431
N          N       0.16111   0.87704   0.66927  -0.23899
N          N       0.97164   0.87523   0.66707  -0.04588
N          N       0.49353   0.69737   0.66980  -0.25011
N          N       0.40664   0.74417   0.65677  -0.15425
N          N       0.56586   0.80600   0.66428  -0.05136
N          N       0.60506   0.16248   0.70596  -0.19948
N          N       0.70004   0.15619   0.74282  -0.17280
N          N       0.67752   0.05577   0.69365  -0.04315
N          N       0.69533   0.88282   0.40734  -0.16068
N          N       0.60578   0.92803   0.41518  -0.24295
N          N       0.73049   0.94509   0.49320  -0.12901

