data_crystal

_audit_creation_method 'AiiDA-DDEC plugin'

_cell_length_a        31.72066
_cell_length_b        31.72549
_cell_length_c        31.72313

_cell_angle_alpha     60.02969
_cell_angle_beta     60.00416
_cell_angle_gamma     60.02622

_symmetry_space_group_name_Hall 'P 1'
_symmetry_space_group_name_H-M  'P 1'

loop_
_symmetry_equiv_pos_as_xyz
 'x,y,z'

loop_
_atom_site_label
_atom_site_type_symbol
_atom_site_fract_x
_atom_site_fract_y
_atom_site_fract_z
_atom_site_charge
Cu         Cu      0.66572  -0.00009   0.00006   0.91659
Cu         Cu      0.74302  -0.00007   0.00003   0.90955
Cu         Cu      0.33425  -0.00007   0.00000   0.91227
Cu         Cu      0.25713  -0.00008   0.00001   0.92154
Cu         Cu      0.00002   0.33425   0.66572   0.91590
Cu         Cu     -0.00001   0.25702   0.74299   0.91726
Cu         Cu     -0.00001   0.66574   0.33428   0.91597
Cu         Cu      0.00002   0.74297   0.25701   0.91722
Cu         Cu      0.00005  -0.00001   0.66574   0.91267
Cu         Cu      0.00003   0.00002   0.74284   0.92152
Cu         Cu      0.00002   0.00001   0.33423   0.91271
Cu         Cu      0.00001  -0.00002   0.25713   0.92136
Cu         Cu      0.33421   0.66580  -0.00003   0.91174
Cu         Cu      0.25709   0.74287   0.00003   0.92144
Cu         Cu      0.66575   0.33418   0.00001   0.91233
Cu         Cu      0.74287   0.25713  -0.00004   0.92145
Cu         Cu     -0.00001   0.66579  -0.00001   0.91230
Cu         Cu     -0.00000   0.74287   0.00002   0.92131
Cu         Cu      0.00005   0.33422   0.00001   0.92000
Cu         Cu      0.00002   0.25715  -0.00003   0.92041
Cu         Cu      0.66584   0.00001   0.33421   0.91169
Cu         Cu      0.74297  -0.00001   0.25711   0.92199
Cu         Cu      0.33429   0.00001   0.66577   0.90824
Cu         Cu      0.25700   0.00002   0.74305   0.91814
Cu         Cu      0.62438   0.72729   0.02394   0.56586
Cu         Cu      0.62436   0.02394   0.72733   0.56535
Cu         Cu      0.02396   0.62442   0.62442   0.56664
Cu         Cu      0.72727   0.62439   0.62439   0.56662
Cu         Cu      0.72734   0.02394   0.62438   0.56608
Cu         Cu      0.02394   0.72729   0.62436   0.56636
Cu         Cu      0.62444   0.62442   0.02396   0.56639
Cu         Cu      0.62440   0.62439   0.72727   0.56686
Cu         Cu      0.02394   0.62435   0.72730   0.56568
Cu         Cu      0.72733   0.62437   0.02394   0.56569
Cu         Cu      0.62444   0.02395   0.62444   0.56638
Cu         Cu      0.62444   0.72722   0.62440   0.56620
Cu         Cu      0.37489   0.27415   0.97603   0.63131
Cu         Cu      0.37591   0.97607   0.27216   0.52785
Cu         Cu      0.27271   0.37561   0.37563   0.56700
Cu         Cu      0.97605   0.37558   0.37558   0.56665
Cu         Cu      0.37482   0.97604   0.37488   0.63139
Cu         Cu      0.37556   0.27279   0.37560   0.56548
Cu         Cu      0.27231   0.37577   0.97608   0.53212
Cu         Cu      0.97607   0.37565   0.27269   0.56609
Cu         Cu      0.37557   0.37563   0.27275   0.56745
Cu         Cu      0.37591   0.37584   0.97607   0.53143
Cu         Cu      0.27219   0.97609   0.37593   0.53523
Cu         Cu      0.97606   0.27271   0.37564   0.56569
H          H       0.70495   0.84104   0.02228   0.13641
H          H       0.43164   0.02225   0.84104   0.13627
H          H       0.02226   0.43156   0.70497   0.13605
H          H       0.84112   0.70505   0.43155   0.13615
H          H       0.84101   0.02225   0.70501   0.13577
H          H       0.02226   0.84105   0.43163   0.13656
H          H       0.43162   0.70499   0.02224   0.13580
H          H       0.70505   0.43161   0.84108   0.13641
H          H       0.02226   0.70502   0.84096   0.13613
H          H       0.84107   0.43165   0.02226   0.13638
H          H       0.70497   0.02225   0.43165   0.13619
H          H       0.43164   0.84110   0.70499   0.13614
H          H       0.56856   0.15855   0.97771   0.13622
H          H       0.29502   0.97773   0.15897   0.13617
H          H       0.15885   0.56843   0.29501   0.14007
H          H       0.97774   0.29501   0.56845   0.13650
H          H       0.56858   0.97776   0.29512   0.13591
H          H       0.29498   0.15891   0.56841   0.13603
H          H       0.15925   0.29483   0.97774   0.13669
H          H       0.97775   0.56836   0.15895   0.13580
H          H       0.56837   0.29493   0.15896   0.13642
H          H       0.29497   0.56839   0.97776   0.14011
H          H       0.15924   0.97775   0.56826   0.13606
H          H       0.97775   0.15902   0.29501   0.13636
H          H       0.29517   0.15867   0.97774   0.13601
H          H       0.56830   0.97771   0.15917   0.13613
H          H       0.97774   0.56844   0.29504   0.13576
H          H       0.15890   0.29491   0.56847   0.13628
H          H       0.15899   0.97775   0.29499   0.13613
H          H       0.97775   0.15895   0.56836   0.13641
H          H       0.56830   0.29476   0.97776   0.13607
H          H       0.29494   0.56838   0.15892   0.13640
H          H       0.97774   0.29501   0.15903   0.13591
H          H       0.15891   0.56838   0.97774   0.13630
H          H       0.29522   0.97773   0.56858   0.13623
H          H       0.56834   0.15896   0.29498   0.13538
H          H       0.43166   0.84104   0.02228   0.13646
H          H       0.70494   0.02227   0.84107   0.13567
H          H       0.84115   0.43157   0.70500   0.14036
H          H       0.02226   0.70498   0.43155   0.13609
H          H       0.43160   0.02227   0.70495   0.13648
H          H       0.70505   0.84106   0.43163   0.13621
H          H       0.84098   0.70504   0.02225   0.13631
H          H       0.02226   0.43164   0.84105   0.13642
H          H       0.43160   0.70512   0.84101   0.13558
H          H       0.70498   0.43163   0.02224   0.13646
H          H       0.84107   0.02227   0.43165   0.13560
H          H       0.02226   0.84099   0.70497   0.13645
H          H       0.84317   0.84321   0.01489   0.14265
H          H       0.29867   0.01487   0.84314   0.14221
H          H       0.01487   0.29871   0.84309   0.14201
H          H       0.84328   0.84316   0.29868   0.14226
H          H       0.84317   0.01488   0.84321   0.14253
H          H       0.01487   0.84309   0.29869   0.14231
H          H       0.29873   0.84312   0.01484   0.14235
H          H       0.84324   0.29873   0.84314   0.14241
H          H       0.01486   0.84321   0.84318   0.14227
H          H       0.84314   0.29873   0.01484   0.14231
H          H       0.84318   0.01484   0.29871   0.14245
H          H       0.29866   0.84325   0.84320   0.14220
H          H       0.70134   0.15677   0.98512   0.14215
H          H       0.15679   0.98514   0.15679   0.14210
H          H       0.15676   0.70127   0.15686   0.14272
H          H       0.98513   0.15690   0.70131   0.14206
H          H       0.70138   0.98513   0.15681   0.14251
H          H       0.15675   0.15681   0.70136   0.14219
H          H       0.15682   0.15676   0.98514   0.14249
H          H       0.98514   0.70129   0.15691   0.14227
H          H       0.70131   0.15679   0.15676   0.14223
H          H       0.15683   0.70132   0.98516   0.14193
H          H       0.15689   0.98513   0.70135   0.14243
H          H       0.98515   0.15681   0.15680   0.14209
C          C       0.74459   0.82115   0.02204  -0.10395
C          C       0.77107   0.84752   0.01913  -0.02942
C          C       0.74534   0.90325   0.01470   0.58431
C          C       0.41215   0.02203   0.82111  -0.10411
C          C       0.36222   0.01910   0.84748  -0.03010
C          C       0.33665   0.01465   0.90321   0.58582
C          C       0.02202   0.41214   0.74461  -0.10305
C          C       0.01909   0.36223   0.77107  -0.02988
C          C       0.01466   0.33664   0.74535   0.58566
C          C       0.82116   0.74467   0.41211  -0.10401
C          C       0.84754   0.77113   0.36220  -0.02943
C          C       0.90328   0.74541   0.33661   0.58479
C          C       0.82110   0.02203   0.74466  -0.10268
C          C       0.84749   0.01910   0.77113  -0.03051
C          C       0.90323   0.01468   0.74537   0.58534
C          C       0.02202   0.82111   0.41215  -0.10416
C          C       0.01910   0.84747   0.36223  -0.03009
C          C       0.01468   0.90319   0.33666   0.58548
C          C       0.41218   0.74463   0.02200  -0.10330
C          C       0.36227   0.77110   0.01906  -0.03075
C          C       0.33669   0.74537   0.01465   0.58576
C          C       0.74469   0.41216   0.82112  -0.10420
C          C       0.77116   0.36226   0.84747  -0.03055
C          C       0.74541   0.33669   0.90318   0.58543
C          C       0.02201   0.74466   0.82108  -0.10352
C          C       0.01908   0.77114   0.84747  -0.03022
C          C       0.01468   0.74539   0.90319   0.58481
C          C       0.82113   0.41218   0.02202  -0.10376
C          C       0.84749   0.36226   0.01908  -0.03070
C          C       0.90322   0.33668   0.01469   0.58564
C          C       0.74463   0.02201   0.41219  -0.10374
C          C       0.77112   0.01907   0.36227  -0.03125
C          C       0.74539   0.01466   0.33670   0.58617
C          C       0.41214   0.82118   0.74463  -0.10436
C          C       0.36222   0.84755   0.77111  -0.02978
C          C       0.33664   0.90329   0.74541   0.58460
C          C       0.58792   0.17861   0.97796  -0.10441
C          C       0.63786   0.15234   0.98087  -0.02972
C          C       0.66349   0.09660   0.98532   0.58483
C          C       0.25537   0.97798   0.17884  -0.10367
C          C       0.22889   0.98092   0.15247  -0.03108
C          C       0.25465   0.98530   0.09676   0.58545
C          C       0.17882   0.58786   0.25538  -0.10689
C          C       0.15246   0.63776   0.22891  -0.03000
C          C       0.09672   0.66335   0.25464   0.58489
C          C       0.97798   0.25538   0.58787  -0.10369
C          C       0.98090   0.22891   0.63779  -0.02984
C          C       0.98535   0.25463   0.66338   0.58515
C          C       0.58791   0.97800   0.25547  -0.10356
C          C       0.63785   0.98093   0.22889  -0.03097
C          C       0.66347   0.98534   0.25457   0.58581
C          C       0.25533   0.17883   0.58789  -0.10415
C          C       0.22885   0.15248   0.63781  -0.02978
C          C       0.25458   0.09675   0.66340   0.58523
C          C       0.17907   0.25519   0.97800  -0.10401
C          C       0.15261   0.22880   0.98092  -0.02994
C          C       0.09687   0.25462   0.98531   0.58452
C          C       0.97798   0.58784   0.17890  -0.10342
C          C       0.98090   0.63776   0.15254  -0.03007
C          C       0.98530   0.66334   0.09682   0.58495
C          C       0.58784   0.25530   0.17888  -0.10389
C          C       0.63775   0.22883   0.15250  -0.03089
C          C       0.66332   0.25456   0.09679   0.58552
C          C       0.25533   0.58788   0.97800  -0.10623
C          C       0.22886   0.63777   0.98095  -0.03211
C          C       0.25461   0.66332   0.98535   0.58617
C          C       0.17909   0.97800   0.58782  -0.10309
C          C       0.15264   0.98091   0.63774  -0.02969
C          C       0.09688   0.98532   0.66329   0.58548
C          C       0.97799   0.17890   0.25537  -0.10395
C          C       0.98092   0.15251   0.22889  -0.03052
C          C       0.98533   0.09679   0.25463   0.58514
C          C       0.25552   0.17868   0.97799  -0.10438
C          C       0.22895   0.15239   0.98091  -0.02950
C          C       0.25464   0.09668   0.98531   0.58580
C          C       0.58784   0.97797   0.17902  -0.10411
C          C       0.63778   0.98088   0.15257  -0.02869
C          C       0.66336   0.98528   0.09679   0.58496
C          C       0.97798   0.58786   0.25540  -0.10329
C          C       0.98090   0.63777   0.22893  -0.02973
C          C       0.98534   0.66336   0.25465   0.58551
C          C       0.17885   0.25529   0.58791  -0.10388
C          C       0.15248   0.22882   0.63783  -0.02935
C          C       0.09673   0.25455   0.66341   0.58523
C          C       0.17885   0.97799   0.25534  -0.10329
C          C       0.15248   0.98093   0.22886  -0.03126
C          C       0.09677   0.98533   0.25463   0.58567
C          C       0.97798   0.17889   0.58785  -0.10411
C          C       0.98091   0.15253   0.63777  -0.03045
C          C       0.98534   0.09680   0.66333   0.58590
C          C       0.58782   0.25513   0.97801  -0.10308
C          C       0.63773   0.22876   0.98093  -0.02979
C          C       0.66327   0.25455   0.98534   0.58524
C          C       0.25530   0.58784   0.17889  -0.10435
C          C       0.22884   0.63774   0.15253  -0.03001
C          C       0.25457   0.66330   0.09682   0.58475
C          C       0.97798   0.25537   0.17890  -0.10331
C          C       0.98092   0.22889   0.15251  -0.03040
C          C       0.98533   0.25464   0.09679   0.58486
C          C       0.17882   0.58789   0.97798  -0.10366
C          C       0.15247   0.63779   0.98092  -0.03109
C          C       0.09676   0.66336   0.98531   0.58559
C          C       0.25557   0.97798   0.58791  -0.10428
C          C       0.22898   0.98090   0.63785  -0.02925
C          C       0.25465   0.98534   0.66348   0.58468
C          C       0.58783   0.17887   0.25534  -0.10292
C          C       0.63775   0.15249   0.22885  -0.03088
C          C       0.66333   0.09680   0.25459   0.58551
C          C       0.41218   0.82111   0.02203  -0.10419
C          C       0.36226   0.84746   0.01910  -0.03047
C          C       0.33669   0.90317   0.01468   0.58520
C          C       0.74459   0.02204   0.82116  -0.10322
C          C       0.77107   0.01911   0.84754  -0.02964
C          C       0.74535   0.01464   0.90330   0.58523
C          C       0.82118   0.41214   0.74463  -0.10674
C          C       0.84753   0.36224   0.77110  -0.03010
C          C       0.90328   0.33665   0.74537   0.58486
C          C       0.02202   0.74462   0.41213  -0.10379
C          C       0.01910   0.77109   0.36222  -0.02976
C          C       0.01466   0.74537   0.33663   0.58542
C          C       0.41215   0.02204   0.74460  -0.10417
C          C       0.36222   0.01911   0.77109  -0.02944
C          C       0.33663   0.01467   0.74538   0.58523
C          C       0.74470   0.82113   0.41215  -0.10410
C          C       0.77118   0.84749   0.36224  -0.03056
C          C       0.74547   0.90319   0.33668   0.58521
C          C       0.82109   0.74468   0.02202  -0.10373
C          C       0.84747   0.77115   0.01910  -0.03034
C          C       0.90320   0.74540   0.01469   0.58514
C          C       0.02202   0.41216   0.82110  -0.10408
C          C       0.01910   0.36224   0.84746  -0.03040
C          C       0.01472   0.33666   0.90318   0.58531
C          C       0.41213   0.74474   0.82109  -0.10321
C          C       0.36221   0.77121   0.84747  -0.02987
C          C       0.33664   0.74547   0.90318   0.58571
C          C       0.74463   0.41218   0.02200  -0.10423
C          C       0.77110   0.36227   0.01905  -0.03082
C          C       0.74535   0.33670   0.01464   0.58602
C          C       0.82113   0.02202   0.41217  -0.10230
C          C       0.84751   0.01909   0.36225  -0.03082
C          C       0.90323   0.01469   0.33667   0.58565
C          C       0.02201   0.82112   0.74461  -0.10376
C          C       0.01908   0.84751   0.77109  -0.03057
C          C       0.01470   0.90322   0.74533   0.58519
C          C       0.74242   0.74248   0.02515   0.24197
C          C       0.76950   0.76958   0.02369   0.01952
C          C       0.82247   0.82252   0.01780  -0.08688
C          C       0.48990   0.02517   0.74244   0.24589
C          C       0.43718   0.02370   0.76951   0.01880
C          C       0.33713   0.01779   0.82247  -0.08669
C          C       0.02515   0.48990   0.74245   0.24550
C          C       0.02368   0.43719   0.76951   0.01899
C          C       0.01779   0.33716   0.82245  -0.08651
C          C       0.74249   0.74246   0.48988   0.24577
C          C       0.76957   0.76955   0.43717   0.01870
C          C       0.82256   0.82250   0.33714  -0.08625
C          C       0.74243   0.02515   0.74249   0.24178
C          C       0.76951   0.02369   0.76957   0.01978
C          C       0.82248   0.01780   0.82252  -0.08683
C          C       0.02516   0.74246   0.48989   0.24562
C          C       0.02368   0.76952   0.43718   0.01860
C          C       0.01779   0.82246   0.33715  -0.08665
C          C       0.48992   0.74245   0.02516   0.24622
C          C       0.43721   0.76952   0.02368   0.01874
C          C       0.33719   0.82246   0.01777  -0.08627
C          C       0.74249   0.48989   0.74245   0.24536
C          C       0.76958   0.43719   0.76953   0.01908
C          C       0.82254   0.33718   0.82248  -0.08659
C          C       0.02514   0.74245   0.74242   0.24181
C          C       0.02367   0.76955   0.76950   0.01994
C          C       0.01777   0.82252   0.82248  -0.08651
C          C       0.74247   0.48992   0.02516   0.24640
C          C       0.76953   0.43721   0.02367   0.01872
C          C       0.82248   0.33719   0.01775  -0.08627
C          C       0.74247   0.02516   0.48993   0.24628
C          C       0.76953   0.02368   0.43722   0.01811
C          C       0.82251   0.01776   0.33718  -0.08598
C          C       0.48989   0.74250   0.74242   0.24594
C          C       0.43717   0.76961   0.76950   0.01885
C          C       0.33713   0.82257   0.82250  -0.08632
C          C       0.51009   0.25744   0.97481   0.24614
C          C       0.56281   0.23018   0.97633   0.01912
C          C       0.66288   0.17739   0.98221  -0.08607
C          C       0.25750   0.97481   0.25752   0.24437
C          C       0.23044   0.97631   0.23042   0.01896
C          C       0.17748   0.98223   0.17747  -0.08702
C          C       0.25750   0.51011   0.25756   0.24574
C          C       0.23041   0.56281   0.23048   0.01888
C          C       0.17746   0.66282   0.17753  -0.08659
C          C       0.97484   0.25754   0.51011   0.24550
C          C       0.97631   0.23048   0.56282   0.01891
C          C       0.98221   0.17754   0.66285  -0.08674
C          C       0.51009   0.97482   0.25760   0.24626
C          C       0.56282   0.97634   0.23064   0.01927
C          C       0.66291   0.98221   0.17752  -0.08628
C          C       0.25753   0.25750   0.51014   0.24534
C          C       0.23045   0.23041   0.56286   0.01924
C          C       0.17746   0.17746   0.66290  -0.08699
C          C       0.25764   0.25749   0.97483   0.24197
C          C       0.23068   0.23024   0.97634   0.02030
C          C       0.17756   0.17742   0.98222  -0.08630
C          C       0.97484   0.51011   0.25755   0.24578
C          C       0.97632   0.56281   0.23049   0.01875
C          C       0.98221   0.66284   0.17756  -0.08652
C          C       0.51008   0.25754   0.25755   0.24595
C          C       0.56279   0.23044   0.23047   0.01865
C          C       0.66284   0.17747   0.17747  -0.08596
C          C       0.25749   0.51022   0.97479   0.24357
C          C       0.23041   0.56287   0.97631   0.01942
C          C       0.17748   0.66286   0.98225  -0.08678
C          C       0.25764   0.97482   0.51010   0.24629
C          C       0.23072   0.97633   0.56282   0.01872
C          C       0.17759   0.98222   0.66288  -0.08623
C          C       0.97485   0.25757   0.25756   0.24158
C          C       0.97632   0.23047   0.23048   0.02052
C          C       0.98223   0.17751   0.17750  -0.08620
N          N       0.69320   0.76394   0.02526  -0.23222
N          N       0.68441   0.72727   0.02538  -0.05341
N          N       0.51750   0.02528   0.76397  -0.23363
N          N       0.56287   0.02539   0.72734  -0.05375
N          N       0.02527   0.51754   0.69323  -0.23311
N          N       0.02539   0.56288   0.68445  -0.05409
N          N       0.76398   0.69325   0.51749  -0.23343
N          N       0.72733   0.68443   0.56286  -0.05448
N          N       0.76393   0.02526   0.69325  -0.23175
N          N       0.72727   0.02538   0.68444  -0.05345
N          N       0.02527   0.76396   0.51752  -0.23276
N          N       0.02538   0.72733   0.56286  -0.05431
N          N       0.51756   0.69323   0.02528  -0.23385
N          N       0.56291   0.68445   0.02539  -0.05436
N          N       0.69325   0.51752   0.76395  -0.23357
N          N       0.68445   0.56286   0.72731  -0.05413
N          N       0.02526   0.69323   0.76390  -0.23277
N          N       0.02538   0.68440   0.72725  -0.05341
N          N       0.76399   0.51753   0.02527  -0.23322
N          N       0.72736   0.56288   0.02539  -0.05373
N          N       0.69323   0.02528   0.51759  -0.23356
N          N       0.68446   0.02539   0.56293  -0.05436
N          N       0.51757   0.76394   0.69320  -0.23340
N          N       0.56291   0.72728   0.68442  -0.05394
N          N       0.48201   0.23645   0.97468  -0.23264
N          N       0.43689   0.27357   0.97444  -0.07125
N          N       0.30672   0.97469   0.23604  -0.23678
N          N       0.31557   0.97454   0.27269  -0.04647
N          N       0.23601   0.48248   0.30679  -0.23353
N          N       0.27266   0.43715   0.31559  -0.05435
N          N       0.97473   0.30676   0.48248  -0.23320
N          N       0.97462   0.31554   0.43713  -0.05382
N          N       0.48203   0.97468   0.30680  -0.23298
N          N       0.43689   0.97444   0.31503  -0.07111
N          N       0.30676   0.23605   0.48247  -0.23395
N          N       0.31554   0.27271   0.43713  -0.05402
N          N       0.23575   0.30681   0.97460  -0.22807
N          N       0.27204   0.31623   0.97436  -0.04270
N          N       0.97473   0.48249   0.23604  -0.23300
N          N       0.97462   0.43714   0.27266  -0.05432
N          N       0.48247   0.30676   0.23607  -0.23282
N          N       0.43710   0.31558   0.27271  -0.05441
N          N       0.30671   0.48264   0.97466  -0.23687
N          N       0.31558   0.43728   0.97453  -0.04767
N          N       0.23568   0.97459   0.48294  -0.22821
N          N       0.27192   0.97437   0.43746  -0.04539
N          N       0.97473   0.23611   0.30679  -0.23245
N          N       0.97462   0.27276   0.31559  -0.05354
N          N       0.30683   0.23648   0.97467  -0.23119
N          N       0.31512   0.27359   0.97441  -0.07142
N          N       0.48290   0.97460   0.23567  -0.22946
N          N       0.43742   0.97438   0.27192  -0.04343
N          N       0.97473   0.48246   0.30678  -0.23306
N          N       0.97462   0.43712   0.31555  -0.05463
N          N       0.23603   0.30672   0.48254  -0.23313
N          N       0.27267   0.31555   0.43717  -0.05379
N          N       0.23601   0.97467   0.30675  -0.23661
N          N       0.27266   0.97453   0.31559  -0.04818
N          N       0.97473   0.23604   0.48248  -0.23371
N          N       0.97462   0.27267   0.43714  -0.05398
N          N       0.48292   0.30676   0.97460  -0.22941
N          N       0.43744   0.31620   0.97438  -0.04339
N          N       0.30674   0.48248   0.23607  -0.23279
N          N       0.31553   0.43715   0.27271  -0.05475
N          N       0.97474   0.30678   0.23608  -0.23206
N          N       0.97463   0.31560   0.27274  -0.05318
N          N       0.23603   0.48258   0.97466  -0.23579
N          N       0.27268   0.43725   0.97453  -0.04815
N          N       0.30684   0.97469   0.48201  -0.23239
N          N       0.31505   0.97444   0.43690  -0.07077
N          N       0.48242   0.23608   0.30678  -0.23414
N          N       0.43707   0.27274   0.31558  -0.05377
N          N       0.51756   0.76396   0.02527  -0.23312
N          N       0.56290   0.72732   0.02539  -0.05381
N          N       0.69319   0.02527   0.76396  -0.23294
N          N       0.68439   0.02538   0.72730  -0.05337
N          N       0.76397   0.51752   0.69323  -0.23367
N          N       0.72732   0.56286   0.68443  -0.05368
N          N       0.02528   0.69323   0.51752  -0.23325
N          N       0.02539   0.68445   0.56287  -0.05460
N          N       0.51757   0.02527   0.69321  -0.23330
N          N       0.56292   0.02538   0.68445  -0.05410
N          N       0.69325   0.76392   0.51754  -0.23286
N          N       0.68446   0.72727   0.56288  -0.05433
N          N       0.76392   0.69326   0.02527  -0.23214
N          N       0.72727   0.68442   0.02539  -0.05360
N          N       0.02527   0.51752   0.76397  -0.23376
N          N       0.02539   0.56286   0.72734  -0.05375
N          N       0.51750   0.69329   0.76393  -0.23340
N          N       0.56287   0.68445   0.72729  -0.05451
N          N       0.69324   0.51756   0.02527  -0.23409
N          N       0.68447   0.56290   0.02539  -0.05407
N          N       0.76399   0.02528   0.51754  -0.23280
N          N       0.72735   0.02539   0.56290  -0.05426
N          N       0.02526   0.76391   0.69320  -0.23175
N          N       0.02539   0.72725   0.68439  -0.05361
O          O       0.77159   0.92502   0.01241  -0.53391
O          O       0.69956   0.92491   0.01259  -0.53670
O          O       0.29089   0.01243   0.92502  -0.53669
O          O       0.36287   0.01247   0.92495  -0.53699
O          O       0.01240   0.29094   0.77157  -0.53657
O          O       0.01252   0.36286   0.69959  -0.53692
O          O       0.92504   0.77161   0.29090  -0.53549
O          O       0.92494   0.69967   0.36285  -0.53744
O          O       0.92506   0.01241   0.77154  -0.53638
O          O       0.92496   0.01257   0.69956  -0.53596
O          O       0.01248   0.92498   0.29091  -0.53655
O          O       0.01251   0.92495   0.36286  -0.53663
O          O       0.29095   0.77153   0.01243  -0.53651
O          O       0.36287   0.69959   0.01252  -0.53645
O          O       0.77156   0.29096   0.92497  -0.53704
O          O       0.69961   0.36285   0.92494  -0.53626
O          O       0.01241   0.77155   0.92503  -0.53641
O          O       0.01256   0.69960   0.92490  -0.53609
O          O       0.92502   0.29093   0.01250  -0.53706
O          O       0.92498   0.36288   0.01252  -0.53734
O          O       0.77157   0.01243   0.29095  -0.53658
O          O       0.69960   0.01253   0.36289  -0.53634
O          O       0.29093   0.92504   0.77164  -0.53564
O          O       0.36289   0.92496   0.69965  -0.53553
O          O       0.70921   0.07490   0.98754  -0.53377
O          O       0.63721   0.07490   0.98753  -0.53755
O          O       0.22849   0.98755   0.07493  -0.53677
O          O       0.30046   0.98741   0.07503  -0.53619
O          O       0.07499   0.70904   0.22842  -0.53594
O          O       0.07503   0.63712   0.30040  -0.53755
O          O       0.98760   0.22842   0.70908  -0.53632
O          O       0.98750   0.30038   0.63714  -0.53652
O          O       0.70921   0.98757   0.22839  -0.53609
O          O       0.63726   0.98747   0.30037  -0.53684
O          O       0.22835   0.07501   0.70912  -0.53609
O          O       0.30035   0.07507   0.63716  -0.53593
O          O       0.07501   0.22847   0.98756  -0.53648
O          O       0.07518   0.30041   0.98741  -0.53698
O          O       0.98749   0.70909   0.07503  -0.53623
O          O       0.98746   0.63715   0.07506  -0.53634
O          O       0.70907   0.22843   0.07495  -0.53672
O          O       0.63712   0.30032   0.07507  -0.53630
O          O       0.22846   0.70906   0.98758  -0.53675
O          O       0.30040   0.63715   0.98747  -0.53675
O          O       0.07505   0.98753   0.70905  -0.53682
O          O       0.07515   0.98749   0.63706  -0.53580
O          O       0.98760   0.07496   0.22846  -0.53676
O          O       0.98744   0.07509   0.30043  -0.53616
O          O       0.22844   0.07488   0.98757  -0.53624
O          O       0.30044   0.07497   0.98742  -0.53734
O          O       0.70910   0.98750   0.07503  -0.53461
O          O       0.63708   0.98747   0.07512  -0.53675
O          O       0.98761   0.70906   0.22843  -0.53593
O          O       0.98748   0.63713   0.30041  -0.53739
O          O       0.07497   0.22836   0.70913  -0.53617
O          O       0.07508   0.30029   0.63717  -0.53702
O          O       0.07493   0.98758   0.22847  -0.53642
O          O       0.07505   0.98743   0.30044  -0.53625
O          O       0.98754   0.07501   0.70908  -0.53698
O          O       0.98753   0.07504   0.63713  -0.53662
O          O       0.70901   0.22841   0.98758  -0.53699
O          O       0.63709   0.30033   0.98747  -0.53557
O          O       0.22841   0.70903   0.07503  -0.53651
O          O       0.30036   0.63714   0.07506  -0.53607
O          O       0.98759   0.22848   0.07494  -0.53682
O          O       0.98746   0.30042   0.07508  -0.53722
O          O       0.07495   0.70912   0.98749  -0.53664
O          O       0.07500   0.63715   0.98748  -0.53614
O          O       0.22839   0.98759   0.70919  -0.53515
O          O       0.30042   0.98749   0.63722  -0.53590
O          O       0.70908   0.07499   0.22845  -0.53692
O          O       0.63713   0.07507   0.30038  -0.53636
O          O       0.29093   0.92496   0.01248  -0.53650
O          O       0.36290   0.92493   0.01250  -0.53613
O          O       0.77160   0.01233   0.92506  -0.53454
O          O       0.69956   0.01251   0.92498  -0.53692
O          O       0.92501   0.29096   0.77158  -0.53652
O          O       0.92497   0.36288   0.69961  -0.53687
O          O       0.01240   0.77158   0.29092  -0.53597
O          O       0.01250   0.69961   0.36286  -0.53726
O          O       0.29091   0.01241   0.77162  -0.53588
O          O       0.36287   0.01253   0.69960  -0.53538
O          O       0.77164   0.92499   0.29095  -0.53679
O          O       0.69967   0.92493   0.36287  -0.53615
O          O       0.92503   0.77157   0.01243  -0.53617
O          O       0.92491   0.69961   0.01258  -0.53660
O          O       0.01253   0.29091   0.92497  -0.53686
O          O       0.01255   0.36285   0.92494  -0.53792
O          O       0.29090   0.77161   0.92501  -0.53642
O          O       0.36284   0.69972   0.92489  -0.53700
O          O       0.77151   0.29097   0.01240  -0.53655
O          O       0.69957   0.36287   0.01252  -0.53634
O          O       0.92503   0.01250   0.29090  -0.53680
O          O       0.92498   0.01251   0.36288  -0.53622
O          O       0.01245   0.92506   0.77149  -0.53687
O          O       0.01260   0.92493   0.69953  -0.53587
O          O       0.66113   0.66109   0.01677  -0.77328
O          O       0.66111   0.01679   0.66111  -0.77321
O          O       0.01677   0.66110   0.66111  -0.77330
O          O       0.66109   0.66105   0.66108  -0.77343
O          O       0.33843   0.33917   0.98403  -0.77258
O          O       0.33833   0.98409   0.33834  -0.77231
O          O       0.33889   0.33895   0.33893  -0.77360
O          O       0.98319   0.33892   0.33890  -0.77312

