data_crystal

_audit_creation_method 'AiiDA-DDEC plugin'

_cell_length_a        23.18984
_cell_length_b        23.18125
_cell_length_c        23.37468

_cell_angle_alpha     103.93020
_cell_angle_beta     103.93790
_cell_angle_gamma     120.85353

_symmetry_space_group_name_Hall 'P 1'
_symmetry_space_group_name_H-M  'P 1'

loop_
_symmetry_equiv_pos_as_xyz
 'x,y,z'

loop_
_atom_site_label
_atom_site_type_symbol
_atom_site_fract_x
_atom_site_fract_y
_atom_site_fract_z
_atom_site_charge
In         In      0.36084   0.61059   0.22088   1.37522
In         In      0.11055   0.86081   0.72065   1.37468
In         In      0.50042  -0.00044   0.24992   1.37544
In         In      0.75061   0.74947   0.75004   1.37535
In         In      0.24933   0.25054   0.24993   1.37556
In         In      0.49954   0.00051   0.75009   1.37495
In         In      0.88946   0.13918   0.27935   1.37452
In         In      0.63916   0.38940   0.77906   1.37523
H          H       0.35737   0.78460   0.37832   0.13192
H          H       0.31953   0.82186   0.46263   0.11832
H          H       0.17958   0.59252   0.43218   0.12035
H          H       0.21697   0.55613   0.34691   0.13068
H          H       0.06740   0.67061   0.53089   0.12480
H          H       0.10865   0.62900   0.45158   0.11538
H          H       0.32864   0.84176   0.56272   0.11196
H          H       0.28719   0.88127   0.64093   0.14499
H          H       0.52178   0.59299   0.37827   0.13154
H          H       0.64401   0.63999   0.46203   0.11783
H          H       0.75261   0.83845   0.43077   0.11636
H          H       0.62986   0.79001   0.34654   0.13076
H          H       0.96428   0.86281   0.53226   0.12665
H          H       0.84378   0.82401   0.45225   0.11537
H          H       0.73443   0.72133   0.56297   0.10949
H          H       0.85416   0.76110   0.64193   0.14591
H          H       0.28470   0.85734   0.87834   0.13199
H          H       0.32178   0.81949   0.96268   0.11857
H          H       0.09255   0.67964   0.93215   0.12041
H          H       0.05629   0.71698   0.84681   0.13091
H          H       0.17059   0.56734   0.03096   0.12487
H          H       0.12894   0.60859   0.95169   0.11499
H          H       0.34176   0.82863   0.06269   0.11206
H          H       0.38125   0.78721   0.14089   0.14492
H          H       0.09304   0.02166   0.87813   0.13181
H          H       0.14003   0.14396   0.96195   0.11703
H          H       0.33842   0.25266   0.93084   0.11616
H          H       0.28995   0.12984   0.84649   0.13093
H          H       0.36284   0.46445   0.03245   0.12683
H          H       0.32403   0.34388   0.95237   0.11544
H          H       0.22114   0.23425   0.06283   0.11000
H          H       0.26092   0.35402   0.14188   0.14578
H          H       0.23495   0.85958   0.15531   0.13326
H          H       0.11259   0.81214   0.07345   0.11244
H          H       0.22397   0.93397   0.97332   0.10005
H          H       0.34514   0.98127   0.05656   0.13246
H          H       0.90225   0.75607   0.94184   0.12312
H          H       0.02180   0.79460   0.02022   0.11226
H          H       0.12922   0.89599   0.90727   0.10551
H          H       0.01103   0.85978   0.83222   0.14394
H          H       0.64043   0.26519   0.34464   0.13331
H          H       0.68803   0.38762   0.42674   0.11281
H          H       0.56601   0.27594   0.52660   0.09989
H          H       0.51867   0.15472   0.44321   0.13237
H          H       0.74389   0.59791   0.55831   0.12373
H          H       0.70542   0.47829   0.47988   0.11185
H          H       0.60385   0.37063   0.59263   0.10534
H          H       0.63999   0.48887   0.66771   0.14347
H          H       0.57982   0.70343   0.84551   0.13373
H          H       0.53952   0.73856   0.92759   0.11271
H          H       0.75094   0.96008   0.02653   0.09977
H          H       0.78852   0.92350   0.94298   0.13211
H          H       0.46024   0.81565   0.05761   0.12327
H          H       0.50139   0.77547   0.97910   0.11140
H          H       0.72218   0.98855   0.09258   0.10615
H          H       0.67932   0.02745   0.16814   0.14475
H          H       0.79633   0.92024   0.65455   0.13426
H          H       0.76144   0.96046   0.57233   0.11296
H          H       0.53989   0.74913   0.47337   0.09935
H          H       0.57626   0.71150   0.55702   0.13203
H          H       0.68440   0.03993   0.44237   0.12326
H          H       0.72464  -0.00128   0.52082   0.11216
H          H       0.51153   0.77786   0.40739   0.10569
H          H       0.47262   0.82077   0.33187   0.14439
H          H       0.42023   0.29655   0.15453   0.13370
H          H       0.46049   0.26145   0.07240   0.11287
H          H       0.24910   0.03992   0.97347   0.09960
H          H       0.21152   0.07650   0.05705   0.13197
H          H       0.53977   0.18434   0.94240   0.12359
H          H       0.49860   0.22455   0.02090   0.11159
H          H       0.27782   0.01149   0.90742   0.10591
H          H       0.32068   0.97255   0.83188   0.14462
H          H       0.20359   0.07989   0.34550   0.13405
H          H       0.23854   0.03959   0.42764   0.11282
H          H       0.46012   0.25097   0.52655   0.09988
H          H       0.42363   0.28861   0.44298   0.13188
H          H       0.31564   0.96014   0.55759   0.12315
H          H       0.27540   0.00133   0.47913   0.11160
H          H       0.48848   0.22222   0.59259   0.10615
H          H       0.52738   0.17931   0.66811   0.14461
H          H       0.76502   0.14040   0.84464   0.13307
H          H       0.88738   0.18784   0.92652   0.11281
H          H       0.77600   0.06604   0.02666   0.09998
H          H       0.65483   0.01875   0.94344   0.13239
H          H       0.09771   0.24390   0.05813   0.12271
H          H       0.97818   0.20542   0.97976   0.11207
H          H       0.87073   0.10396   0.09269   0.10523
H          H       0.98893   0.14020   0.16775   0.14378
H          H       0.35950   0.73483   0.65535   0.13334
H          H       0.31204   0.61242   0.57332   0.11255
H          H       0.43411   0.72416   0.47352   0.09965
H          H       0.48138   0.84536   0.55687   0.13250
H          H       0.25609   0.40212   0.44171   0.12543
H          H       0.29458   0.52175   0.52015   0.11170
H          H       0.39621   0.62943   0.40742   0.10517
H          H       0.35995   0.51114   0.33228   0.14379
H          H       0.71532   0.14264   0.12172   0.13185
H          H       0.67817   0.18044   0.03737   0.11799
H          H       0.90739   0.32031   0.06782   0.12048
H          H       0.94369   0.28298   0.15314   0.13122
H          H       0.82935   0.43258   0.96896   0.12489
H          H       0.87092   0.39140   0.04830   0.11518
H          H       0.65820   0.17132   0.93729   0.11179
H          H       0.61876   0.21264   0.85897   0.14461
H          H       0.90697   0.97830   0.12186   0.13196
H          H       0.85996   0.85600   0.03802   0.11741
H          H       0.66157   0.74731   0.06913   0.11627
H          H       0.71004   0.87013   0.15348   0.13069
H          H       0.63717   0.53553   0.96758   0.12685
H          H       0.67598   0.65610   0.04765   0.11542
H          H       0.77885   0.76570   0.93717   0.11012
H          H       0.73905   0.64592   0.85811   0.14561
H          H       0.64274   0.21544   0.62169   0.13194
H          H       0.68052   0.17818   0.53731   0.11835
H          H       0.82051   0.40754   0.56783   0.12070
H          H       0.78320   0.44392   0.65321   0.13048
H          H       0.93266   0.32941   0.46915   0.12524
H          H       0.89138   0.37105   0.54842   0.11588
H          H       0.67139   0.15825   0.43728   0.11169
H          H       0.71287   0.11873   0.35912   0.14440
H          H       0.47826   0.40704   0.62177   0.13179
H          H       0.35604   0.36004   0.53799   0.11763
H          H       0.24744   0.16158   0.56925   0.11602
H          H       0.37020   0.21004   0.65350   0.13096
H          H       0.03573   0.13718   0.46766   0.12644
H          H       0.15622   0.17597   0.54768   0.11559
H          H       0.26565   0.27877   0.43707   0.11000
H          H       0.14594   0.23898   0.35807   0.14593
C          C       0.31825   0.74328   0.39049  -0.08747
C          C       0.29743   0.76381   0.43787  -0.12055
C          C       0.24575   0.70977   0.45300   0.08191
C          C       0.21717   0.63446   0.41959  -0.13152
C          C       0.23818   0.61382   0.37229  -0.08962
C          C       0.28885   0.66809   0.35734  -0.00324
C          C       0.12444   0.70671   0.53715  -0.08595
C          C       0.14797   0.68362   0.49353  -0.13675
C          C       0.22176   0.73213   0.50099   0.07882
C          C       0.27129   0.80378   0.55494  -0.12295
C          C       0.24836   0.82635   0.59942  -0.07834
C          C       0.17441   0.77853   0.59021   0.01038
C          C       0.31338   0.64674   0.30814   0.52260
C          C       0.14916   0.80512   0.63590   0.53452
C          C       0.57279   0.64660   0.39040  -0.08687
C          C       0.64107   0.67343   0.43751  -0.12207
C          C       0.70759   0.74270   0.45260   0.07948
C          C       0.70251   0.78429   0.41886  -0.12729
C          C       0.63414   0.75776   0.37198  -0.08878
C          C       0.56869   0.68870   0.35735  -0.00375
C          C       0.91333   0.83238   0.53817  -0.08836
C          C       0.84614   0.81119   0.49418  -0.13641
C          C       0.77960   0.76919   0.50113   0.08151
C          C       0.78410   0.75185   0.55538  -0.12249
C          C       0.85153   0.77440   0.60028  -0.08235
C          C       0.91631   0.81332   0.59114   0.01262
C          C       0.49509   0.66109   0.30823   0.52100
C          C       0.98724   0.83226   0.63644   0.53490
C          C       0.24331   0.81824   0.89045  -0.08778
C          C       0.26377   0.79742   0.93788  -0.12064
C          C       0.20977   0.74575   0.95302   0.08196
C          C       0.13452   0.71722   0.91959  -0.13181
C          C       0.11393   0.73820   0.87223  -0.09023
C          C       0.16816   0.78887   0.85725  -0.00310
C          C       0.20666   0.62440   0.03720  -0.08578
C          C       0.18356   0.64795   0.99362  -0.13622
C          C       0.23209   0.72175   0.00103   0.07880
C          C       0.30374   0.77128   0.05496  -0.12262
C          C       0.32631   0.74833   0.09943  -0.07836
C          C       0.27846   0.67437   0.09026   0.00974
C          C       0.14669   0.81338   0.80804   0.52365
C          C       0.30482   0.64901   0.13599   0.53432
C          C       0.14662   0.07273   0.89032  -0.08768
C          C       0.17345   0.14102   0.93745  -0.12090
C          C       0.24270   0.20759   0.95259   0.07889
C          C       0.28428   0.20252   0.91887  -0.12670
C          C       0.25776   0.13414   0.87196  -0.08944
C          C       0.18869   0.06867   0.85726  -0.00312
C          C       0.33240   0.41344   0.03831  -0.08839
C          C       0.31119   0.34621   0.99427  -0.13649
C          C       0.26915   0.27961   0.00116   0.08134
C          C       0.25172   0.28401   0.05534  -0.12239
C          C       0.27430   0.35147   0.10028  -0.08230
C          C       0.31332   0.41636   0.09127   0.01239
C          C       0.16106   0.99507   0.80808   0.52058
C          C       0.33228   0.48727   0.13672   0.53302
C          C       0.23105   0.87575   0.11537  -0.08310
C          C       0.16276   0.84979   0.06926  -0.12683
C          C       0.15785   0.87179   0.01773   0.07954
C          C       0.22524   0.91834   0.01351  -0.11224
C          C       0.29365   0.94470   0.05966  -0.09086
C          C       0.29734   0.92430   0.11153   0.00958
C          C       0.95293   0.78757   0.93576  -0.08694
C          C       0.02028   0.80870   0.97911  -0.12640
C          C       0.08654   0.84881   0.97113   0.07902
C          C       0.08101   0.86635   0.91683  -0.11106
C          C       0.01392   0.84585   0.87356  -0.08150
C          C       0.94939   0.80679   0.88291   0.01709
C          C       0.37071   0.95306   0.16172   0.52420
C          C       0.87819   0.78654   0.83691   0.53034
C          C       0.62425   0.26905   0.38457  -0.08216
C          C       0.65030   0.33736   0.43079  -0.12774
C          C       0.62822   0.34217   0.48227   0.07988
C          C       0.58166   0.27471   0.48642  -0.11235
C          C       0.55523   0.20628   0.44019  -0.09166
C          C       0.57559   0.20270   0.38830   0.00930
C          C       0.71240   0.54717   0.56433  -0.08750
C          C       0.69129   0.47979   0.52098  -0.12565
C          C       0.65116   0.41348   0.52891   0.07827
C          C       0.63354   0.41893   0.58316  -0.11137
C          C       0.65401   0.48605   0.62643  -0.08065
C          C       0.69315   0.55065   0.61715   0.01640
C          C       0.54672   0.12932   0.33799   0.52472
C          C       0.71345   0.62189   0.66318   0.53039
C          C       0.61568   0.75968   0.88509  -0.08308
C          C       0.59369   0.78019   0.93132  -0.12823
C          C       0.64031   0.85391   0.98240   0.08254
C          C       0.71195   0.90429   0.98647  -0.11217
C          C       0.73394   0.88419   0.94012  -0.09231
C          C       0.68550   0.81198   0.88837   0.01083
C          C       0.51714   0.85271   0.06385  -0.08750
C          C       0.54109   0.83033   0.02047  -0.12399
C          C       0.61551   0.87797   0.02877   0.07625
C          C       0.66443   0.94960   0.08314  -0.11075
C          C       0.64073   0.97243   0.12662  -0.08150
C          C       0.56676   0.92435   0.11708   0.01552
C          C       0.70817   0.79037   0.83778   0.52714
C          C       0.54111   0.94939   0.16308   0.53042
C          C       0.74011   0.88434   0.61496  -0.08295
C          C       0.71977   0.90632   0.56863  -0.12817
C          C       0.64611   0.85971   0.51751   0.08220
C          C       0.59565   0.78808   0.51346  -0.11231
C          C       0.61560   0.76608   0.55987  -0.09263
C          C       0.68773   0.81454   0.61170   0.01081
C          C       0.64737   0.98300   0.43614  -0.08708
C          C       0.66975   0.95901   0.47948  -0.12433
C          C       0.62209   0.88455   0.47116   0.07598
C          C       0.55045   0.83564   0.41682  -0.11024
C          C       0.52765   0.85939   0.37337  -0.08119
C          C       0.57574   0.93340   0.38293   0.01564
C          C       0.70918   0.79179   0.66231   0.52507
C          C       0.55071   0.95906   0.33691   0.53035
C          C       0.38437   0.24032   0.11494  -0.08308
C          C       0.40634   0.21981   0.06869  -0.12781
C          C       0.35969   0.14612   0.01758   0.08245
C          C       0.28808   0.09571   0.01354  -0.11236
C          C       0.26610   0.11581   0.05991  -0.09251
C          C       0.31456   0.18801   0.11167   0.01101
C          C       0.48286   0.14730   0.93615  -0.08744
C          C       0.45893   0.16968   0.97953  -0.12382
C          C       0.38450   0.12205   0.97123   0.07629
C          C       0.33557   0.05041   0.91688  -0.11110
C          C       0.35926   0.02758   0.87339  -0.08123
C          C       0.43324   0.07565   0.88294   0.01569
C          C       0.29188   0.20960   0.16227   0.52688
C          C       0.45887   0.05060   0.83695   0.53000
C          C       0.25981   0.11575   0.38507  -0.08327
C          C       0.28022   0.09374   0.43135  -0.12829
C          C       0.35390   0.14035   0.48244   0.08296
C          C       0.40434   0.21199   0.48648  -0.11233
C          C       0.38431   0.23401   0.44010  -0.09213
C          C       0.31214   0.18557   0.38833   0.01018
C          C       0.35267   0.01707   0.56382  -0.08739
C          C       0.33029   0.04105   0.52047  -0.12412
C          C       0.37793   0.11551   0.52878   0.07604
C          C       0.44956   0.16444   0.58314  -0.11064
C          C       0.47236   0.14070   0.62660  -0.08076
C          C       0.42429   0.06668   0.61704   0.01523
C          C       0.29053   0.20826   0.33772   0.52728
C          C       0.44929   0.04102   0.66308   0.53133
C          C       0.76893   0.12423   0.88459  -0.08293
C          C       0.83721   0.15020   0.93072  -0.12699
C          C       0.84212   0.12820   0.98225   0.07980
C          C       0.77471   0.08165   0.98646  -0.11190
C          C       0.70630   0.05528   0.94029  -0.09169
C          C       0.70263   0.07570   0.88843   0.00974
C          C       0.04704   0.21242   0.06421  -0.08546
C          C       0.97970   0.19131   0.02087  -0.12644
C          C       0.91342   0.15116   0.02883   0.07855
C          C       0.91894   0.13363   0.08314  -0.11111
C          C       0.98603   0.15412   0.12641  -0.08143
C          C       0.05057   0.19318   0.11706   0.01732
C          C       0.62927   0.04699   0.83828   0.52503
C          C       0.12176   0.21344   0.16308   0.52982
C          C       0.37573   0.73097   0.61545  -0.08277
C          C       0.34975   0.66269   0.56926  -0.12733
C          C       0.37184   0.65789   0.51778   0.07999
C          C       0.41844   0.72538   0.51368  -0.11139
C          C       0.44481   0.79379   0.55990  -0.09226
C          C       0.42436   0.79735   0.61174   0.01005
C          C       0.28759   0.45287   0.43569  -0.08854
C          C       0.30872   0.52025   0.47906  -0.12578
C          C       0.34891   0.58658   0.47116   0.07804
C          C       0.36651   0.58113   0.41689  -0.11054
C          C       0.34598   0.51400   0.37360  -0.08162
C          C       0.30686   0.44939   0.38287   0.01715
C          C       0.45313   0.87070   0.66199   0.52442
C          C       0.28655   0.37818   0.33679   0.53013
C          C       0.75669   0.18174   0.10959  -0.08765
C          C       0.73619   0.20254   0.06216  -0.12114
C          C       0.79017   0.25423   0.04699   0.08246
C          C       0.86542   0.28274   0.08040  -0.13158
C          C       0.88604   0.26178   0.12776  -0.09015
C          C       0.83184   0.21111   0.14277  -0.00346
C          C       0.79324   0.37553   0.96271  -0.08558
C          C       0.81633   0.35200   0.00634  -0.13575
C          C       0.76782   0.27822  -0.00103   0.07821
C          C       0.69622   0.22866   0.94499  -0.12226
C          C       0.67366   0.25157   0.90046  -0.07915
C          C       0.72147   0.32552   0.90959   0.00912
C          C       0.85334   0.18666   0.19203   0.52359
C          C       0.69502   0.35083   0.86382   0.53613
C          C       0.85339   0.92725   0.10969  -0.08667
C          C       0.82656   0.85896   0.06254  -0.12137
C          C       0.75732   0.79238   0.04741   0.07899
C          C       0.71571   0.79745   0.08111  -0.12770
C          C       0.74224   0.86582   0.12802  -0.08918
C          C       0.81130   0.93130   0.14273  -0.00323
C          C       0.66763   0.58654   0.96172  -0.08847
C          C       0.68881   0.65375   0.00574  -0.13678
C          C       0.73087   0.72036  -0.00114   0.08184
C          C       0.74826   0.71594   0.94465  -0.12277
C          C       0.72570   0.64849   0.89973  -0.08177
C          C       0.68671   0.58361   0.90877   0.01251
C          C       0.83890   0.00489   0.19190   0.52038
C          C       0.66772   0.51269   0.86331   0.53327
C          C       0.68183   0.25676   0.60952  -0.08798
C          C       0.70264   0.23624   0.56212  -0.12055
C          C       0.75430   0.29027   0.54698   0.08250
C          C       0.78293   0.36560   0.58042  -0.13193
C          C       0.76196   0.38624   0.62775  -0.08917
C          C       0.71125   0.33197   0.64266  -0.00313
C          C       0.87562   0.29334   0.46289  -0.08573
C          C       0.85206   0.31644   0.50647  -0.13723
C          C       0.77826   0.26791   0.49898   0.07908
C          C       0.72873   0.19625   0.44505  -0.12296
C          C       0.75169   0.17367   0.40060  -0.07827
C          C       0.82564   0.22151   0.40984   0.01047
C          C       0.68658   0.35333   0.69171   0.52380
C          C       0.85093   0.19496   0.36418   0.53377
C          C       0.42725   0.35342   0.60961  -0.08643
C          C       0.35896   0.32660   0.56251  -0.12226
C          C       0.29244   0.25730   0.54739   0.07926
C          C       0.29754   0.21574   0.58117  -0.12682
C          C       0.36591   0.24226   0.62802  -0.08903
C          C       0.43134   0.31133   0.64266  -0.00393
C          C       0.08669   0.16760   0.46174  -0.08886
C          C       0.15388   0.18881   0.50577  -0.13633
C          C       0.22043   0.23081   0.49884   0.08133
C          C       0.21596   0.24820   0.44462  -0.12225
C          C       0.14853   0.22563   0.39970  -0.08346
C          C       0.08370   0.18664   0.40876   0.01382
C          C       0.50494   0.33897   0.69180   0.52114
C          C       0.01281   0.16772   0.36339   0.53336
O          O       0.37138   0.69830   0.30606  -0.54163
O          O       0.27789   0.57836   0.26978  -0.50128
O          O       0.08827   0.75899   0.63722  -0.52444
O          O       0.18951   0.87518   0.67341  -0.49537
O          O       0.43502   0.60644   0.30520  -0.53980
O          O       0.49243   0.69243   0.27093  -0.50260
O          O       0.04918   0.88007   0.63762  -0.52407
O          O       0.98458   0.79912   0.67350  -0.49515
O          O       0.19820   0.87151   0.80604  -0.54208
O          O       0.07835   0.77774   0.76959  -0.50160
O          O       0.25860   0.58805   0.13716  -0.52362
O          O       0.37483   0.68934   0.17366  -0.49564
O          O       0.10647   0.93501   0.80511  -0.54000
O          O       0.19233   0.99242   0.77072  -0.50167
O          O       0.38041   0.54941   0.13834  -0.52357
O          O       0.29885   0.48441   0.17352  -0.49348
O          O       0.37202   0.92566   0.20288  -0.51753
O          O       0.43076   0.00423   0.16239  -0.53258
O          O       0.81622   0.73420   0.83280  -0.52159
O          O       0.87998   0.82148   0.80202  -0.49370
O          O       0.57390   0.12809   0.29667  -0.51761
O          O       0.49579   0.06923   0.33746  -0.53326
O          O       0.76577   0.68391   0.66731  -0.52163
O          O       0.67854   0.62011   0.69809  -0.49380
O          O       0.66979   0.72153   0.79836  -0.51579
O          O       0.76592   0.84094   0.83513  -0.53458
O          O       0.48077   0.90105   0.16394  -0.51978
O          O       0.57980   0.01872   0.20112  -0.49732
O          O       0.77803   0.82997   0.70163  -0.51501
O          O       0.65851   0.73419   0.66501  -0.53261
O          O       0.59904   0.01937   0.33599  -0.51932
O          O       0.48140   0.92035   0.29886  -0.49772
O          O       0.33014   0.27845   0.20160  -0.51557
O          O       0.23418   0.15900   0.16495  -0.53445
O          O       0.51922   0.09893   0.83608  -0.51911
O          O       0.42017   0.98128   0.79889  -0.49741
O          O       0.22171   0.16979   0.29824  -0.51630
O          O       0.34106   0.26610   0.33516  -0.53416
O          O       0.40097   0.98072   0.66400  -0.52014
O          O       0.51860   0.07971   0.70111  -0.49725
O          O       0.62794   0.07457   0.79726  -0.51788
O          O       0.56922   0.99568   0.83751  -0.53275
O          O       0.18375   0.26578   0.16720  -0.52122
O          O       0.11995   0.17848   0.19794  -0.49354
O          O       0.42571   0.87196   0.70312  -0.51765
O          O       0.50429   0.93079   0.66268  -0.53255
O          O       0.23419   0.31611   0.33257  -0.52214
O          O       0.32147   0.38002   0.30190  -0.49288
O          O       0.80185   0.12860   0.19412  -0.54286
O          O       0.92170   0.22228   0.23042  -0.50070
O          O       0.74110   0.41203   0.86290  -0.52460
O          O       0.62506   0.31026   0.82593  -0.49684
O          O       0.89348   0.06497   0.19488  -0.53969
O          O       0.80762   0.00751   0.22926  -0.50165
O          O       0.61971   0.45059   0.86183  -0.52401
O          O       0.70103   0.51551   0.82641  -0.49322
O          O       0.62823   0.30175   0.69337  -0.54240
O          O       0.72222   0.42166   0.73033  -0.50112
O          O       0.91172   0.24115   0.36276  -0.52339
O          O       0.81070   0.12489   0.32681  -0.49527
O          O       0.56499   0.39361   0.69481  -0.53950
O          O       0.50761   0.30761   0.72908  -0.50276
O          O       0.95078   0.11976   0.36202  -0.52399
O          O       0.01555   0.20102   0.32648  -0.49421

