data_crystal

_audit_creation_method 'AiiDA-DDEC plugin'

_cell_length_a        11.19334
_cell_length_b        24.07290
_cell_length_c        25.85733

_cell_angle_alpha     62.32953
_cell_angle_beta     77.43705
_cell_angle_gamma     76.45159

_symmetry_space_group_name_Hall 'P 1'
_symmetry_space_group_name_H-M  'P 1'

loop_
_symmetry_equiv_pos_as_xyz
 'x,y,z'

loop_
_atom_site_label
_atom_site_type_symbol
_atom_site_fract_x
_atom_site_fract_y
_atom_site_fract_z
_atom_site_charge
Zn         Zn      0.18574   0.78379   0.74936   0.75071
Zn         Zn      0.71974   0.71490   0.74998   0.74956
Zn         Zn      0.81427   0.21621   0.25064   0.75071
Zn         Zn      0.28026   0.28510   0.25002   0.74955
Zn         Zn      0.25821   0.24984   0.75018   0.78653
Zn         Zn      0.63693   0.24998   0.74985   0.78538
Zn         Zn      0.74179   0.75016   0.24982   0.78662
Zn         Zn      0.36308   0.75002   0.25015   0.78542
H          H       0.95411   0.30167   0.25926   0.10126
H          H       0.00826   0.32149   0.33352   0.14670
H          H       0.75993   0.19031   0.46137   0.11055
H          H       0.71879   0.17544   0.38087   0.09426
H          H       0.80733   0.20451   0.51968   0.09216
H          H       0.79570   0.27924   0.51897   0.09257
H          H       0.94932   0.35288   0.44357   0.07286
H          H       0.05686   0.32458   0.39577   0.11307
H          H       0.16357   0.24146   0.47587   0.09575
H          H       0.15419   0.31569   0.47593   0.08856
H          H       0.90111   0.19889   0.60022   0.10640
H          H       0.00761   0.16674   0.55503   0.07719
H          H       0.20548   0.32762   0.53486   0.11402
H          H       0.28304   0.32391   0.61717   0.09470
H          H       0.09540   0.17661   0.73830   0.09658
H          H       0.99458   0.17792   0.66206   0.14153
H          H       0.52219   0.11970   0.86104   0.11433
H          H       0.64328   0.02808   0.93694   0.10732
H          H       0.43308   0.90087   0.93368   0.10710
H          H       0.30941   0.99466   0.85933   0.11675
H          H       0.85820   0.94422   0.92835   0.11202
H          H       0.02558   0.91711   0.85717   0.12195
H          H       0.82898   0.77630   0.87224   0.11942
H          H       0.66434   0.80038   0.94536   0.11314
H          H       0.41912   0.69059   0.75976   0.10178
H          H       0.52930   0.60414   0.83711   0.14733
H          H       0.19866   0.61390   0.96026   0.11223
H          H       0.10394   0.70098   0.87673   0.09447
H          H       0.27627   0.52857   0.01437   0.09537
H          H       0.38384   0.55735   0.03402   0.07618
H          H       0.61543   0.55644   0.90451   0.10996
H          H       0.59563   0.57156   0.96684   0.08724
H          H       0.16088   0.01646   0.63721   0.12007
H          H       0.26469   0.11097   0.56467   0.11399
H          H       0.60477   0.98455   0.55695   0.11197
H          H       0.50108   0.89156   0.63105   0.11661
H          H       0.40203   0.21313   0.55003   0.11144
H          H       0.46186   0.23676   0.62522   0.11577
H          H       0.78357   0.09443   0.64564   0.12151
H          H       0.72368   0.06828   0.57193   0.11416
H          H       0.88753   0.17010   0.76116   0.09372
H          H       0.02094   0.10037   0.83811   0.14062
H          H       0.70555   0.11930   0.96486   0.10989
H          H       0.59435   0.19224   0.88223   0.09706
H          H       0.11172   0.05088   0.90143   0.11031
H          H       0.12610   0.05798   0.96452   0.09832
H          H       0.79206   0.04887   0.02279   0.09401
H          H       0.93070   0.05947   0.03797   0.08113
H          H       0.51431   0.19889   0.24144   0.10125
H          H       0.66262   0.17868   0.16725   0.14582
H          H       0.40990   0.30980   0.03954   0.11022
H          H       0.27337   0.32476   0.12012   0.09386
H          H       0.52996   0.29565   0.98110   0.09308
H          H       0.59265   0.22098   0.98167   0.09217
H          H       0.74519   0.14721   0.05672   0.07407
H          H       0.77629   0.17504   0.10480   0.11432
H          H       0.87954   0.25853   0.02463   0.09371
H          H       0.94514   0.18430   0.02453   0.08881
H          H       0.69868   0.30132   0.90042   0.10624
H          H       0.72776   0.33331   0.94567   0.07713
H          H       0.06771   0.17258   0.96545   0.11448
H          H       0.22386   0.17619   0.88312   0.09383
H          H       0.00885   0.32326   0.76198   0.09628
H          H       0.83318   0.32212   0.83825   0.14123
H          H       0.50069   0.37923   0.63981   0.11529
H          H       0.60777   0.47046   0.56424   0.10911
H          H       0.26816   0.59897   0.56651   0.10770
H          H       0.16190   0.50587   0.64052   0.11654
H          H       0.73091   0.55503   0.57276   0.11175
H          H       0.79784   0.58346   0.64330   0.12205
H          H       0.47331   0.72413   0.62656   0.11916
H          H       0.40858   0.69895   0.55368   0.11398
H          H       0.86867   0.80914   0.74006   0.10129
H          H       0.96924   0.89576   0.66302   0.14808
H          H       0.77312   0.88649   0.53930   0.11292
H          H       0.68252   0.79917   0.62244   0.09384
H          H       0.81951   0.97180   0.48521   0.09512
H          H       0.97597   0.94285   0.46585   0.07574
H          H       0.07584   0.94328   0.59569   0.11042
H          H       0.13399   0.92819   0.53335   0.08568
H          H       0.81493   0.48177   0.86340   0.11989
H          H       0.94182   0.38782   0.93621   0.11429
H          H       0.14528   0.51538   0.94286   0.11278
H          H       0.02141   0.60784   0.86850   0.11646
H          H       0.16560   0.28656   0.94939   0.11133
H          H       0.32531   0.26348   0.87428   0.11550
H          H       0.52317   0.40569   0.85464   0.12120
H          H       0.36265   0.43127   0.92856   0.11344
H          H       0.81794   0.33005   0.73842   0.09440
H          H       0.95835   0.39978   0.66159   0.14162
H          H       0.79014   0.38074   0.53462   0.11006
H          H       0.66948   0.30778   0.61724   0.09648
H          H       0.06425   0.44839   0.59858   0.11003
H          H       0.14876   0.44205   0.53508   0.09869
H          H       0.86509   0.45130   0.47648   0.09297
H          H       0.02979   0.44108   0.46158   0.08057
H          H       0.04590   0.69833   0.74074   0.10129
H          H       0.99174   0.67851   0.66648   0.14656
H          H       0.24007   0.80969   0.53863   0.11060
H          H       0.28122   0.82456   0.61913   0.09433
H          H       0.19267   0.79550   0.48032   0.09227
H          H       0.20431   0.72076   0.48103   0.09257
H          H       0.05068   0.64712   0.55643   0.07285
H          H       0.94315   0.67542   0.60423   0.11308
H          H       0.83643   0.75854   0.52413   0.09571
H          H       0.84582   0.68431   0.52407   0.08843
H          H       0.09890   0.80111   0.39978   0.10635
H          H       0.99239   0.83326   0.44497   0.07718
H          H       0.79453   0.67238   0.46514   0.11392
H          H       0.71697   0.67609   0.38283   0.09449
H          H       0.90461   0.82339   0.26170   0.09658
H          H       0.00543   0.82208   0.33794   0.14165
H          H       0.47782   0.88030   0.13896   0.11429
H          H       0.35673   0.97192   0.06306   0.10716
H          H       0.56692   0.09913   0.06632   0.10723
H          H       0.69059   0.00534   0.14067   0.11685
H          H       0.14181   0.05578   0.07165   0.11191
H          H       0.97442   0.08289   0.14283   0.12181
H          H       0.17102   0.22370   0.12776   0.11956
H          H       0.33566   0.19962   0.05465   0.11325
H          H       0.58088   0.30941   0.24024   0.10179
H          H       0.47071   0.39586   0.16289   0.14730
H          H       0.80134   0.38610   0.03974   0.11222
H          H       0.89607   0.29903   0.12328   0.09457
H          H       0.72373   0.47143   0.98563   0.09549
H          H       0.61616   0.44265   0.96598   0.07609
H          H       0.38458   0.44357   0.09550   0.10999
H          H       0.40437   0.42844   0.03316   0.08719
H          H       0.83912   0.98354   0.36279   0.12017
H          H       0.73531   0.88903   0.43533   0.11397
H          H       0.39524   0.01545   0.44305   0.11185
H          H       0.49892   0.10844   0.36895   0.11663
H          H       0.59797   0.78687   0.44997   0.11151
H          H       0.53814   0.76324   0.37479   0.11578
H          H       0.21644   0.90557   0.35436   0.12137
H          H       0.27632   0.93172   0.42807   0.11420
H          H       0.11248   0.82990   0.23884   0.09370
H          H       0.97907   0.89963   0.16189   0.14061
H          H       0.29446   0.88070   0.03514   0.10993
H          H       0.40566   0.80776   0.11777   0.09706
H          H       0.88828   0.94912   0.09857   0.11032
H          H       0.87391   0.94202   0.03548   0.09819
H          H       0.20794   0.95113   0.97721   0.09415
H          H       0.06930   0.94053   0.96203   0.08098
H          H       0.48569   0.80111   0.75856   0.10118
H          H       0.33738   0.82133   0.83275   0.14580
H          H       0.59011   0.69020   0.96046   0.11029
H          H       0.72664   0.67524   0.87988   0.09390
H          H       0.47005   0.70435   0.01890   0.09319
H          H       0.40735   0.77902   0.01833   0.09223
H          H       0.25481   0.85279   0.94328   0.07413
H          H       0.22371   0.82496   0.89520   0.11412
H          H       0.12046   0.74147   0.97537   0.09353
H          H       0.05487   0.81570   0.97547   0.08883
H          H       0.30132   0.69868   0.09958   0.10627
H          H       0.27225   0.66669   0.05433   0.07699
H          H       0.93230   0.82742   0.03455   0.11443
H          H       0.77615   0.82382   0.11688   0.09382
H          H       0.99115   0.67674   0.23802   0.09636
H          H       0.16682   0.67788   0.16176   0.14132
H          H       0.49932   0.62077   0.36019   0.11528
H          H       0.39224   0.52954   0.43577   0.10898
H          H       0.73185   0.40103   0.43349   0.10773
H          H       0.83811   0.49413   0.35948   0.11662
H          H       0.26909   0.44497   0.42724   0.11176
H          H       0.20217   0.41654   0.35670   0.12192
H          H       0.52669   0.27587   0.37344   0.11919
H          H       0.59142   0.30105   0.44632   0.11399
H          H       0.13133   0.19086   0.25994   0.10126
H          H       0.03077   0.10424   0.33698   0.14791
H          H       0.22689   0.11351   0.46070   0.11296
H          H       0.31749   0.20083   0.37756   0.09395
H          H       0.18049   0.02820   0.51479   0.09535
H          H       0.02403   0.05715   0.53415   0.07575
H          H       0.92417   0.05672   0.40431   0.11034
H          H       0.86601   0.07181   0.46665   0.08569
H          H       0.18507   0.51823   0.13660   0.12000
H          H       0.05819   0.61218   0.06379   0.11433
H          H       0.85472   0.48462   0.05714   0.11265
H          H       0.97859   0.39216   0.13150   0.11629
H          H       0.83441   0.71344   0.05061   0.11142
H          H       0.67470   0.73652   0.12572   0.11567
H          H       0.47683   0.59431   0.14536   0.12116
H          H       0.63736   0.56873   0.07144   0.11333
H          H       0.18206   0.66995   0.26158   0.09428
H          H       0.04166   0.60022   0.33841   0.14144
H          H       0.20987   0.61926   0.46538   0.11013
H          H       0.33053   0.69222   0.38276   0.09661
H          H       0.93575   0.55161   0.40142   0.10995
H          H       0.85124   0.55796   0.46492   0.09864
H          H       0.13491   0.54870   0.52352   0.09315
H          H       0.97021   0.55892   0.53842   0.08054
C          C       0.91174   0.27803   0.30457   0.10121
C          C       0.94176   0.28942   0.34739  -0.25150
C          C       0.89058   0.25775   0.40694   0.22213
C          C       0.80628   0.21657   0.41775  -0.25917
C          C       0.78192   0.20786   0.37204   0.09770
C          C       0.86120   0.24083   0.51155  -0.09223
C          C       0.00494   0.31020   0.43991  -0.09831
C          C       0.09918   0.27987   0.48388  -0.08967
C          C       0.95415   0.21095   0.55640  -0.09681
C          C       0.08968   0.25293   0.58933   0.22627
C          C       0.17481   0.29358   0.57882  -0.25135
C          C       0.22013   0.29160   0.62539   0.09951
C          C       0.11218   0.21077   0.69259   0.09887
C          C       0.05908   0.21086   0.64906  -0.25137
C          C       0.32847   0.11847   0.81551   0.55182
C          C       0.40853   0.06226   0.85670  -0.00280
C          C       0.50398   0.07159   0.87759  -0.06941
C          C       0.57126   0.02062   0.91962  -0.09426
C          C       0.54342   0.95965   0.93992  -0.08167
C          C       0.45073   0.94899   0.91824  -0.11256
C          C       0.38303   0.00069   0.87683  -0.09204
C          C       0.75336   0.87322   0.94066  -0.08654
C          C       0.85327   0.90737   0.91610  -0.11538
C          C       0.94506   0.89281   0.87658  -0.09299
C          C       0.93592   0.84555   0.86088  -0.01004
C          C       0.83419   0.81286   0.88480  -0.07453
C          C       0.74255   0.82625   0.92533  -0.09413
C          C       0.04082   0.82845   0.82124   0.54903
C          C       0.37289   0.67226   0.80480   0.09886
C          C       0.43491   0.62287   0.84911  -0.24363
C          C       0.37634   0.59939   0.90796   0.22263
C          C       0.25261   0.62819   0.91703  -0.25957
C          C       0.19802   0.67790   0.86993   0.09675
C          C       0.37502   0.52726   0.01370  -0.08629
C          C       0.57146   0.54159   0.95009  -0.10001
C          C       0.25687   0.89437   0.67874   0.54824
C          C       0.32507   0.94906   0.63830  -0.00632
C          C       0.25810   0.01076   0.61959  -0.09078
C          C       0.31506   0.06280   0.57926  -0.11115
C          C       0.43973   0.05229   0.55698  -0.08245
C          C       0.50827   0.99123   0.57525  -0.09792
C          C       0.45040   0.93960   0.61641  -0.07484
C          C       0.55979   0.13972   0.55707  -0.09047
C          C       0.48461   0.18707   0.57147  -0.09683
C          C       0.51807   0.20023   0.61307  -0.07147
C          C       0.62601   0.16707   0.63950  -0.00994
C          C       0.70018   0.11954   0.62457  -0.09162
C          C       0.66731   0.10525   0.58363  -0.11152
C          C       0.66642   0.18391   0.68187   0.54832
C          C       0.85354   0.15855   0.80712   0.10058
C          C       0.92628   0.11789   0.85107  -0.25467
C          C       0.87698   0.10027   0.91106   0.22228
C          C       0.75325   0.12870   0.92101  -0.25665
C          C       0.68882   0.17043   0.87411   0.09893
C          C       0.07675   0.03599   0.94812  -0.10665
C          C       0.89286   0.03631   0.01831  -0.08718
C          C       0.49334   0.22231   0.19619   0.09945
C          C       0.57765   0.21074   0.15337  -0.25075
C          C       0.55412   0.24231   0.09384   0.22278
C          C       0.43913   0.28350   0.08311  -0.25928
C          C       0.36031   0.29233   0.12885   0.09762
C          C       0.61225   0.25930   0.98914  -0.09195
C          C       0.75420   0.18977   0.06058  -0.10115
C          C       0.86203   0.22014   0.01657  -0.08770
C          C       0.72013   0.28916   0.94421  -0.09638
C          C       0.93096   0.24717   0.91105   0.22506
C          C       0.04656   0.20655   0.92151  -0.25275
C          C       0.13659   0.20847   0.87491   0.10035
C          C       0.01438   0.28917   0.80771   0.09972
C          C       0.91776   0.28915   0.85130  -0.24976
C          C       0.26012   0.38141   0.68502   0.55343
C          C       0.32560   0.43741   0.64389  -0.00518
C          C       0.45153   0.42751   0.62332  -0.06652
C          C       0.51081   0.47812   0.58147  -0.09650
C          C       0.44293   0.53928   0.56093  -0.08200
C          C       0.31772   0.55060   0.58226  -0.11344
C          C       0.25938   0.49925   0.62354  -0.09222
C          C       0.56680   0.62602   0.55942  -0.08807
C          C       0.67605   0.59220   0.58448  -0.11256
C          C       0.71250   0.60757   0.62371  -0.09309
C          C       0.63948   0.65531   0.63863  -0.00874
C          C       0.52877   0.68737   0.61446  -0.07335
C          C       0.49244   0.67331   0.57410  -0.09485
C          C       0.68616   0.67337   0.67794   0.54596
C          C       0.84941   0.82751   0.69497   0.10060
C          C       0.90612   0.87703   0.65082  -0.24394
C          C       0.88337   0.90066   0.59188   0.22524
C          C       0.79801   0.87195   0.58259  -0.26343
C          C       0.74632   0.82209   0.62956   0.09910
C          C       0.91623   0.97296   0.48612  -0.08490
C          C       0.06282   0.95823   0.55006  -0.09923
C          C       0.82936   0.60398   0.82156   0.54798
C          C       0.91159   0.54953   0.86211  -0.00828
C          C       0.88825   0.48777   0.88107  -0.08946
C          C       0.95737   0.43612   0.92156  -0.11164
C          C       0.04872   0.44712   0.94365  -0.08389
C          C       0.07368   0.50832   0.92501  -0.09695
C          C       0.00497   0.55958   0.88372  -0.07329
C          C       0.25662   0.35967   0.94333  -0.08978
C          C       0.24360   0.31259   0.92854  -0.09677
C          C       0.33231   0.29978   0.88677  -0.07042
C          C       0.43312   0.33313   0.86038  -0.00925
C          C       0.44426   0.38037   0.87570  -0.09338
C          C       0.35585   0.39425   0.91684  -0.10980
C          C       0.53296   0.31664   0.81771   0.54795
C          C       0.81881   0.34151   0.69245   0.10116
C          C       0.89467   0.38220   0.64855  -0.25776
C          C       0.88821   0.39969   0.58856   0.22574
C          C       0.80324   0.37131   0.57848  -0.25870
C          C       0.73378   0.32957   0.62538   0.09935
C          C       0.06081   0.46371   0.55184  -0.10722
C          C       0.94831   0.46390   0.48132  -0.08537
C          C       0.08827   0.72197   0.69543   0.10107
C          C       0.05825   0.71058   0.65261  -0.25142
C          C       0.10942   0.74225   0.59307   0.22222
C          C       0.19373   0.78343   0.58225  -0.25948
C          C       0.21808   0.79214   0.62796   0.09803
C          C       0.13881   0.75917   0.48845  -0.09229
C          C       0.99507   0.68981   0.56009  -0.09833
C          C       0.90082   0.72013   0.51612  -0.08963
C          C       0.04585   0.78905   0.44360  -0.09656
C          C       0.91032   0.74707   0.41067   0.22631
C          C       0.82519   0.70642   0.42118  -0.25135
C          C       0.77987   0.70840   0.37461   0.09960
C          C       0.88782   0.78923   0.30741   0.09880
C          C       0.94092   0.78915   0.35094  -0.25122
C          C       0.67153   0.88153   0.18449   0.55178
C          C       0.59147   0.93774   0.14330  -0.00297
C          C       0.49602   0.92841   0.12241  -0.06952
C          C       0.42875   0.97938   0.08038  -0.09434
C          C       0.45658   0.04035   0.06008  -0.08150
C          C       0.54927   0.05101   0.08176  -0.11264
C          C       0.61698  -0.00069   0.12317  -0.09179
C          C       0.24665   0.12678   0.05934  -0.08651
C          C       0.14673   0.09263   0.08390  -0.11555
C          C       0.05494   0.10719   0.12342  -0.09294
C          C       0.06409   0.15445   0.13912  -0.01010
C          C       0.16581   0.18714   0.11520  -0.07455
C          C       0.25746   0.17375   0.07467  -0.09402
C          C       0.95918   0.17155   0.17876   0.54921
C          C       0.62712   0.32774   0.19520   0.09889
C          C       0.56510   0.37713   0.15089  -0.24369
C          C       0.62367   0.40061   0.09204   0.22270
C          C       0.74739   0.37181   0.08297  -0.25952
C          C       0.80198   0.32210   0.13007   0.09671
C          C       0.62499   0.47274   0.98630  -0.08645
C          C       0.42855   0.45841   0.04991  -0.10027
C          C       0.74314   0.10563   0.32126   0.54827
C          C       0.67494   0.05094   0.36170  -0.00634
C          C       0.74190   0.98924   0.38041  -0.09069
C          C       0.68495   0.93720   0.42074  -0.11122
C          C       0.56027   0.94771   0.44302  -0.08236
C          C       0.49173   0.00877   0.42475  -0.09792
C          C       0.54961   0.06040   0.38359  -0.07491
C          C       0.44021   0.86028   0.44293  -0.09069
C          C       0.51540   0.81293   0.42853  -0.09654
C          C       0.48193   0.79977   0.38693  -0.07157
C          C       0.37400   0.83293   0.36050  -0.00989
C          C       0.29983   0.88046   0.37543  -0.09164
C          C       0.33270   0.89475   0.41637  -0.11149
C          C       0.33358   0.81609   0.31813   0.54845
C          C       0.14646   0.84145   0.19288   0.10057
C          C       0.07372   0.88211   0.14893  -0.25468
C          C       0.12303   0.89973   0.08894   0.22232
C          C       0.24676   0.87130   0.07899  -0.25683
C          C       0.31118   0.82957   0.12589   0.09905
C          C       0.92325   0.96401   0.05188  -0.10679
C          C       0.10715   0.96369   0.98169  -0.08728
C          C       0.50667   0.77769   0.80381   0.09942
C          C       0.42236   0.78926   0.84663  -0.25081
C          C       0.44589   0.75769   0.90617   0.22276
C          C       0.56088   0.71650   0.91689  -0.25934
C          C       0.63969   0.70767   0.87115   0.09780
C          C       0.38776   0.74070   0.01086  -0.09187
C          C       0.24580   0.81023   0.93942  -0.10094
C          C       0.13797   0.77987   0.98343  -0.08782
C          C       0.27988   0.71084   0.05579  -0.09633
C          C       0.06905   0.75283   0.08895   0.22509
C          C       0.95344   0.79346   0.07849  -0.25277
C          C       0.86342   0.79153   0.12509   0.10026
C          C       0.98563   0.71083   0.19229   0.09967
C          C       0.08225   0.71085   0.14870  -0.24976
C          C       0.73988   0.61859   0.31498   0.55340
C          C       0.67440   0.56259   0.35611  -0.00512
C          C       0.54847   0.57249   0.37668  -0.06655
C          C       0.48920   0.52189   0.41853  -0.09647
C          C       0.55708   0.46072   0.43907  -0.08191
C          C       0.68228   0.44940   0.41774  -0.11360
C          C       0.74063   0.50075   0.37646  -0.09216
C          C       0.43320   0.37398   0.44058  -0.08809
C          C       0.32395   0.40780   0.41552  -0.11264
C          C       0.28750   0.39243   0.37629  -0.09296
C          C       0.36052   0.34469   0.36137  -0.00886
C          C       0.47123   0.31263   0.38554  -0.07346
C          C       0.50756   0.32669   0.42590  -0.09455
C          C       0.31385   0.32663   0.32206   0.54600
C          C       0.15059   0.17249   0.30503   0.10055
C          C       0.09388   0.12297   0.34919  -0.24391
C          C       0.11664   0.09934   0.40812   0.22524
C          C       0.20199   0.12805   0.41741  -0.26332
C          C       0.25369   0.17791   0.37045   0.09915
C          C       0.08377   0.02704   0.51388  -0.08495
C          C       0.93718   0.04177   0.44995  -0.09926
C          C       0.17064   0.39602   0.17844   0.54788
C          C       0.08842   0.45047   0.13789  -0.00842
C          C       0.11175   0.51223   0.11893  -0.08923
C          C       0.04263   0.56389   0.07844  -0.11156
C          C       0.95129   0.55288   0.05636  -0.08391
C          C       0.92633   0.49168   0.07500  -0.09707
C          C       0.99504   0.44042   0.11628  -0.07317
C          C       0.74339   0.64033   0.05667  -0.09010
C          C       0.75640   0.68741   0.07146  -0.09644
C          C       0.66770   0.70022   0.11323  -0.07050
C          C       0.56688   0.66687   0.13963  -0.00919
C          C       0.55575   0.61964   0.12430  -0.09353
C          C       0.64415   0.60575   0.08316  -0.10976
C          C       0.46704   0.68336   0.18229   0.54803
C          C       0.18119   0.65849   0.30755   0.10113
C          C       0.10534   0.61781   0.35146  -0.25777
C          C       0.11180   0.60031   0.41144   0.22583
C          C       0.19677   0.62869   0.42152  -0.25875
C          C       0.26623   0.67043   0.37462   0.09945
C          C       0.93920   0.53629   0.44816  -0.10732
C          C       0.05170   0.53610   0.51868  -0.08539
S          S       0.63583   0.89392   0.98971   0.96886
S          S       0.51350   0.11888   0.50763   0.96724
S          S       0.52038   0.60428   0.51082   0.97161
S          S       0.14076   0.38086   0.99281   0.96674
S          S       0.36417   0.10608   0.01029   0.96878
S          S       0.48651   0.88112   0.49238   0.96719
S          S       0.47963   0.39572   0.48919   0.97161
S          S       0.85924   0.61914   0.00719   0.96677
N          N       0.83358   0.23742   0.31566  -0.27625
N          N       0.92313   0.26555   0.45112  -0.07075
N          N       0.03819   0.25499   0.54463  -0.08234
N          N       0.19135   0.25057   0.68220  -0.26608
N          N       0.25612   0.70093   0.81419  -0.27278
N          N       0.43622   0.55022   0.95317  -0.08953
N          N       0.94342   0.05744   0.95628  -0.06977
N          N       0.73584   0.18564   0.81717  -0.27054
N          N       0.38538   0.26295   0.18518  -0.27619
N          N       0.63869   0.23447   0.04955  -0.07208
N          N       0.83679   0.24512   0.95583  -0.08374
N          N       0.12327   0.24938   0.81810  -0.26890
N          N       0.77145   0.79875   0.68537  -0.27416
N          N       0.93927   0.94989   0.54678  -0.09141
N          N       0.95735   0.44239   0.54346  -0.07149
N          N       0.73885   0.31431   0.68233  -0.27187
N          N       0.16643   0.76258   0.68434  -0.27624
N          N       0.07687   0.73445   0.54888  -0.07076
N          N       0.96182   0.74501   0.45537  -0.08241
N          N       0.80865   0.74944   0.31781  -0.26626
N          N       0.74389   0.29907   0.18581  -0.27276
N          N       0.56378   0.44978   0.04683  -0.08938
N          N       0.05658   0.94256   0.04372  -0.06974
N          N       0.26417   0.81436   0.18283  -0.27042
N          N       0.61463   0.73705   0.81482  -0.27617
N          N       0.36132   0.76553   0.95045  -0.07208
N          N       0.16321   0.75488   0.04417  -0.08367
N          N       0.87674   0.75062   0.18190  -0.26895
N          N       0.22855   0.20125   0.31463  -0.27416
N          N       0.06073   0.05011   0.45322  -0.09144
N          N       0.04265   0.55761   0.45654  -0.07142
N          N       0.26116   0.68569   0.31767  -0.27183
O          O       0.36935   0.17192   0.79454  -0.53061
O          O       0.22929   0.11068   0.80657  -0.56329
O          O       0.56252   0.84211   0.02315  -0.52362
O          O       0.69579   0.91615   0.02021  -0.52183
O          O       0.14522   0.84187   0.81741  -0.54277
O          O       0.01830   0.79870   0.79452  -0.53653
O          O       0.14049   0.90380   0.68324  -0.54249
O          O       0.32166   0.83943   0.70547  -0.53548
O          O       0.62572   0.09732   0.47631  -0.52070
O          O       0.41909   0.16983   0.47513  -0.52445
O          O       0.58117   0.21748   0.70277  -0.52990
O          O       0.77667   0.16655   0.69241  -0.56270
O          O       0.33358   0.32793   0.70594  -0.53266
O          O       0.14410   0.38933   0.69396  -0.56287
O          O       0.42970   0.65592   0.47636  -0.52434
O          O       0.63348   0.58075   0.48138  -0.52279
O          O       0.80044   0.66110   0.68163  -0.54369
O          O       0.60652   0.70245   0.70511  -0.53203
O          O       0.72691   0.59450   0.81730  -0.54070
O          O       0.86664   0.65867   0.79445  -0.53649
O          O       0.20077   0.40307   0.02325  -0.52170
O          O       0.06580   0.32977   0.02612  -0.52348
O          O       0.50233   0.28304   0.79688  -0.52997
O          O       0.63628   0.33404   0.80712  -0.56201
O          O       0.63066   0.82808   0.20546  -0.53084
O          O       0.77072   0.88933   0.19343  -0.56299
O          O       0.43748   0.15789   0.97685  -0.52339
O          O       0.30422   0.08385   0.97979  -0.52203
O          O       0.85478   0.15813   0.18259  -0.54319
O          O       0.98170   0.20130   0.20548  -0.53625
O          O       0.85951   0.09620   0.31677  -0.54235
O          O       0.67834   0.16057   0.29453  -0.53564
O          O       0.37429   0.90269   0.52369  -0.52074
O          O       0.58091   0.83017   0.52487  -0.52429
O          O       0.41883   0.78252   0.29723  -0.52982
O          O       0.22334   0.83345   0.30759  -0.56299
O          O       0.66643   0.67208   0.29406  -0.53280
O          O       0.85591   0.61067   0.30604  -0.56273
O          O       0.57031   0.34409   0.52364  -0.52428
O          O       0.36653   0.41925   0.51862  -0.52285
O          O       0.19956   0.33891   0.31837  -0.54392
O          O       0.39348   0.29755   0.29489  -0.53189
O          O       0.27309   0.40550   0.18270  -0.54035
O          O       0.13337   0.34133   0.20556  -0.53670
O          O       0.79923   0.59693   0.97675  -0.52195
O          O       0.93421   0.67023   0.97388  -0.52326
O          O       0.49768   0.71696   0.20312  -0.52984
O          O       0.36373   0.66596   0.19288  -0.56227

