data_crystal

_audit_creation_method 'AiiDA-DDEC plugin'

_cell_length_a        15.23209
_cell_length_b        19.95423
_cell_length_c        26.26929

_cell_angle_alpha     90.00680
_cell_angle_beta     89.98675
_cell_angle_gamma     89.76669

_symmetry_space_group_name_Hall 'P 1'
_symmetry_space_group_name_H-M  'P 1'

loop_
_symmetry_equiv_pos_as_xyz
 'x,y,z'

loop_
_atom_site_label
_atom_site_type_symbol
_atom_site_fract_x
_atom_site_fract_y
_atom_site_fract_z
_atom_site_charge
Cu         Cu      0.49238   0.75675  -0.00121   0.29534
Cu         Cu      0.99358   0.74671   0.50158   0.28935
Cu         Cu      0.00676   0.24417   0.99808   0.29442
Cu         Cu      0.50698   0.25403   0.50120   0.29189
Cu         Cu      0.50763   0.24325   0.00121   0.29520
Cu         Cu      0.00642   0.25329   0.49842   0.28927
Cu         Cu      0.99325   0.75583   0.00192   0.29450
Cu         Cu      0.49303   0.74597   0.49881   0.29196
H          H       0.82002   0.90539   0.24570   0.09047
H          H       0.84843   0.96804   0.19947   0.09402
H          H       0.75916   0.91145   0.03396   0.12471
H          H       0.66178   0.84087   0.97901   0.08404
H          H       0.51314   0.78293   0.10397   0.09369
H          H       0.60408   0.84998   0.16311   0.13093
H          H       0.79315   0.07882   0.30599   0.08551
H          H       0.87843   0.04778   0.26589   0.09660
H          H       0.80297   0.90750   0.39209   0.12158
H          H       0.83243   0.81200   0.45083   0.08500
H          H       0.10173   0.83684   0.43867   0.08022
H          H       0.08345   0.93521   0.38084   0.12197
H          H       0.63107   0.06128   0.77195   0.09998
H          H       0.71142   0.07267   0.82048   0.08951
H          H       0.48625   0.01670   0.95055   0.11450
H          H       0.42486   0.92071   0.00022   0.08706
H          H       0.52192   0.78314   0.89639   0.07738
H          H       0.59199   0.87210   0.84457   0.12358
H          H       0.64669   0.97050   0.70892   0.09530
H          H       0.67479   0.90685   0.75317   0.08980
H          H       0.89952   0.92027   0.64126   0.12971
H          H       0.00186   0.87292   0.57763   0.09009
H          H       0.83091   0.71789   0.54257   0.07382
H          H       0.71913   0.76050   0.60390   0.11278
H          H       0.31774   0.59509   0.25220   0.09118
H          H       0.34750   0.53357   0.29919   0.09333
H          H       0.25807   0.58896   0.46447   0.12512
H          H       0.16125   0.65940   0.52012   0.08395
H          H       0.01017   0.71889   0.39627   0.09324
H          H       0.10061   0.65219   0.33627   0.13115
H          H       0.29811   0.42208   0.19275   0.08698
H          H       0.38109   0.45465   0.23351   0.09494
H          H       0.30330   0.59412   0.10699   0.12008
H          H       0.33104   0.68993   0.04859   0.08574
H          H       0.60088   0.66543   0.06056   0.08006
H          H       0.58420   0.56653   0.11776   0.12236
H          H       0.13354   0.43904   0.72899   0.09999
H          H       0.21366   0.42695   0.68028   0.08966
H          H       0.98799   0.48293   0.55042   0.11412
H          H       0.92561   0.57899   0.50075   0.08663
H          H       0.02188   0.71661   0.60401   0.07541
H          H       0.09338   0.62784   0.65575   0.12295
H          H       0.14749   0.52880   0.79131   0.09592
H          H       0.17747   0.59347   0.74838   0.09072
H          H       0.40156   0.57861   0.86025   0.13087
H          H       0.50383   0.62759   0.92286   0.08988
H          H       0.33135   0.78336   0.95616   0.07242
H          H       0.21954   0.73943   0.89578   0.11292
H          H       0.68024   0.09512   0.24535   0.09065
H          H       0.65219   0.03238   0.19914   0.09480
H          H       0.74228   0.08822   0.03398   0.12425
H          H       0.83809   0.15976   0.97895   0.08335
H          H       0.98744   0.21802   0.10345   0.09338
H          H       0.89793   0.15053   0.16279   0.13076
H          H       0.70519   0.92113   0.30518   0.08623
H          H       0.62048   0.95372   0.26539   0.09520
H          H       0.69579   0.09190   0.39174   0.12148
H          H       0.66747   0.18745   0.45046   0.08515
H          H       0.39791   0.16366   0.43901   0.07910
H          H       0.41497   0.06537   0.38119   0.12201
H          H       0.86690   0.93893   0.77187   0.09995
H          H       0.78722   0.92698   0.82069   0.09001
H          H       0.01253   0.98338   0.95027   0.11357
H          H       0.07449   0.07925  -0.00017   0.08821
H          H       0.97790   0.21685   0.89602   0.07765
H          H       0.90698   0.12804   0.84444   0.12406
H          H       0.85075   0.02838   0.70870   0.09506
H          H       0.82330   0.09230   0.75295   0.09065
H          H       0.59845   0.07964   0.64081   0.12965
H          H       0.49700   0.12773   0.57674   0.08968
H          H       0.66960   0.28205   0.54276   0.07386
H          H       0.78044   0.23862   0.60434   0.11373
H          H       0.18193   0.40510   0.25246   0.09075
H          H       0.15266   0.46690   0.29913   0.09309
H          H       0.24101   0.41062   0.46454   0.12521
H          H       0.33906   0.34094   0.52021   0.08371
H          H       0.48972   0.28166   0.39600   0.09490
H          H       0.39796   0.34802   0.33611   0.13090
H          H       0.20391   0.57613   0.19118   0.08525
H          H       0.12069   0.54577   0.23269   0.09577
H          H       0.19740   0.40510   0.10655   0.12219
H          H       0.16877   0.30959   0.04797   0.08574
H          H       0.89915   0.33474   0.06061   0.07968
H          H       0.91664   0.43341   0.11828   0.12330
H          H       0.36831   0.56098   0.72864   0.09989
H          H       0.28729   0.57292   0.68051   0.08943
H          H       0.51289   0.51698   0.55001   0.11369
H          H       0.57527   0.42070   0.50022   0.08729
H          H       0.47845   0.28331   0.60374   0.07659
H          H       0.40774   0.37247   0.65561   0.12273
H          H       0.35403   0.47013   0.79163   0.09615
H          H       0.32427   0.40602   0.74819   0.09119
H          H       0.09997   0.42152   0.85994   0.12965
H          H       0.99662   0.37271   0.92205   0.08984
H          H       0.16825   0.21647   0.95591   0.07256
H          H       0.28104   0.26063   0.89621   0.11250
H          H       0.17999   0.09461   0.75431   0.09038
H          H       0.15157   0.03196   0.80053   0.09395
H          H       0.24085   0.08855   0.96605   0.12466
H          H       0.33823   0.15913   0.02099   0.08405
H          H       0.48686   0.21706   0.89603   0.09383
H          H       0.39593   0.15002   0.83689   0.13085
H          H       0.20686   0.92118   0.69401   0.08553
H          H       0.12158   0.95222   0.73411   0.09648
H          H       0.19704   0.09250   0.60791   0.12177
H          H       0.16758   0.18799   0.54917   0.08505
H          H       0.89828   0.16316   0.56133   0.08010
H          H       0.91656   0.06479   0.61916   0.12182
H          H       0.36893   0.93872   0.22805   0.10018
H          H       0.28859   0.92733   0.17952   0.08946
H          H       0.51375   0.98330   0.04945   0.11450
H          H       0.57515   0.07929  -0.00022   0.08722
H          H       0.47808   0.21686   0.10361   0.07735
H          H       0.40801   0.12789   0.15543   0.12355
H          H       0.35332   0.02950   0.29108   0.09558
H          H       0.32522   0.09315   0.24683   0.08976
H          H       0.10049   0.07973   0.35874   0.12964
H          H      -0.00185   0.12708   0.42237   0.08987
H          H       0.16910   0.28211   0.45743   0.07390
H          H       0.28087   0.23950   0.39610   0.11292
H          H       0.68227   0.40491   0.74780   0.09122
H          H       0.65251   0.46643   0.70081   0.09301
H          H       0.74194   0.41104   0.53553   0.12492
H          H       0.83876   0.34060   0.47988   0.08376
H          H       0.98983   0.28111   0.60373   0.09341
H          H       0.89940   0.34781   0.66373   0.13135
H          H       0.70190   0.57792   0.80725   0.08714
H          H       0.61892   0.54535   0.76649   0.09470
H          H       0.69670   0.40588   0.89301   0.12042
H          H       0.66896   0.31007   0.95141   0.08593
H          H       0.39913   0.33457   0.93944   0.07991
H          H       0.41580   0.43347   0.88225   0.12212
H          H       0.86646   0.56096   0.27101   0.10052
H          H       0.78634   0.57305   0.31972   0.08955
H          H       0.01202   0.51707   0.44958   0.11418
H          H       0.07440   0.42101   0.49925   0.08680
H          H       0.97812   0.28339   0.39599   0.07535
H          H       0.90663   0.37216   0.34425   0.12275
H          H       0.85252   0.47120   0.20869   0.09600
H          H       0.82253   0.40653   0.25162   0.09073
H          H       0.59845   0.42139   0.13975   0.13077
H          H       0.49618   0.37241   0.07714   0.08969
H          H       0.66865   0.21664   0.04384   0.07236
H          H       0.78046   0.26057   0.10422   0.11307
H          H       0.31977   0.90488   0.75465   0.09065
H          H       0.34781   0.96762   0.80086   0.09496
H          H       0.25773   0.91178   0.96602   0.12441
H          H       0.16192   0.84024   0.02105   0.08353
H          H       0.01256   0.78197   0.89655   0.09309
H          H       0.10208   0.84947   0.83721   0.13064
H          H       0.29481   0.07887   0.69482   0.08614
H          H       0.37952   0.04628   0.73461   0.09546
H          H       0.30422   0.90810   0.60826   0.12132
H          H       0.33253   0.81254   0.54954   0.08495
H          H       0.60210   0.83634   0.56099   0.07920
H          H       0.58504   0.93463   0.61881   0.12223
H          H       0.13310   0.06107   0.22814   0.09986
H          H       0.21279   0.07302   0.17931   0.09014
H          H       0.98747   0.01662   0.04973   0.11352
H          H       0.92551   0.92075   0.00017   0.08799
H          H       0.02211   0.78314   0.10398   0.07767
H          H       0.09303   0.87196   0.15556   0.12418
H          H       0.14925   0.97162   0.29130   0.09499
H          H       0.17671   0.90770   0.24705   0.09062
H          H       0.40156   0.92036   0.35919   0.12962
H          H       0.50300   0.87227   0.42326   0.08997
H          H       0.33041   0.71795   0.45724   0.07392
H          H       0.21956   0.76138   0.39567   0.11363
H          H       0.81808   0.59490   0.74754   0.09082
H          H       0.84735   0.53310   0.70087   0.09322
H          H       0.75900   0.58938   0.53546   0.12537
H          H       0.66095   0.65906   0.47979   0.08369
H          H       0.51028   0.71834   0.60400   0.09475
H          H       0.60204   0.65198   0.66389   0.13088
H          H       0.79609   0.42387   0.80882   0.08522
H          H       0.87931   0.45423   0.76731   0.09596
H          H       0.80260   0.59490   0.89345   0.12190
H          H       0.83124   0.69041   0.95204   0.08564
H          H       0.10086   0.66526   0.93940   0.07981
H          H       0.08337   0.56659   0.88172   0.12341
H          H       0.63169   0.43902   0.27136   0.09962
H          H       0.71271   0.42708   0.31949   0.08962
H          H       0.48712   0.48302   0.44999   0.11368
H          H       0.42474   0.57930   0.49978   0.08726
H          H       0.52156   0.71669   0.39626   0.07660
H          H       0.59226   0.62753   0.34439   0.12276
H          H       0.64597   0.52987   0.20837   0.09591
H          H       0.67573   0.59398   0.25181   0.09116
H          H       0.90004   0.57848   0.14006   0.12977
H          H       0.00339   0.62729   0.07795   0.09003
H          H       0.83175   0.78353   0.04409   0.07257
H          H       0.71897   0.73937   0.10379   0.11232
C          C       0.79477   0.94622   0.22171  -0.03511
C          C       0.75627   0.91880   0.13603   0.47962
C          C       0.69168   0.88502   0.10348  -0.01512
C          C       0.70522   0.88309   0.05031  -0.14105
C          C       0.65186   0.84376   0.02003   0.04657
C          C       0.56867   0.81155   0.08992   0.07469
C          C       0.61923   0.84943   0.12272  -0.14025
C          C       0.82035   0.03358   0.28806  -0.02655
C          C       0.93100   0.98182   0.34226   0.46866
C          C       0.94159   0.92933   0.38085  -0.03583
C          C       0.86990   0.89389   0.40188  -0.16316
C          C       0.88607   0.84057   0.43436   0.05461
C          C       0.03678   0.85500   0.42807   0.06316
C          C       0.02651   0.90950   0.39598  -0.13133
C          C       0.68032   0.03564   0.79553  -0.02787
C          C       0.58874   0.00834   0.86655   0.49229
C          C       0.54789   0.95235   0.89464  -0.01993
C          C       0.49867   0.96529   0.93876  -0.12213
C          C       0.46294   0.91206   0.96572   0.07435
C          C       0.51715   0.83551   0.90772   0.05995
C          C       0.55652   0.88515   0.87908  -0.15034
C          C       0.70152   0.94735   0.72973  -0.02900
C          C       0.73529   0.86543   0.66684   0.47597
C          C       0.79965   0.84380   0.62817  -0.02110
C          C       0.88048   0.87616   0.61962  -0.15613
C          C       0.93846   0.84949   0.58417   0.06239
C          C       0.84245   0.76342   0.56426   0.05649
C          C       0.78069   0.78695   0.59851  -0.14469
C          C       0.29329   0.55484   0.27692  -0.03547
C          C       0.25235   0.58057   0.36292   0.47146
C          C       0.18904   0.61576   0.39539  -0.01410
C          C       0.20363   0.61758   0.44849  -0.14341
C          C       0.15060   0.65692   0.47919   0.04558
C          C       0.06610   0.68998   0.40986   0.07453
C          C       0.11649   0.65227   0.37656  -0.13999
C          C       0.32279   0.46769   0.21112  -0.02628
C          C       0.43203   0.52010   0.15672   0.46864
C          C       0.44209   0.57278   0.11840  -0.03822
C          C       0.37001   0.60827   0.09749  -0.16272
C          C       0.38522   0.66185   0.06527   0.05533
C          C       0.53616   0.64748   0.07140   0.06513
C          C       0.52680   0.59259   0.10315  -0.13093
C          C       0.18274   0.46420   0.70525  -0.02918
C          C       0.08962   0.49137   0.63475   0.49051
C          C       0.04900   0.54727   0.60624  -0.01551
C          C      -0.00020   0.53432   0.56226  -0.12253
C          C       0.96345   0.58761   0.53528   0.07911
C          C       0.01729   0.66419   0.59289   0.06354
C          C       0.05747   0.61454   0.62156  -0.15164
C          C       0.20312   0.55195   0.77142  -0.03145
C          C       0.23648   0.63290   0.83480   0.47568
C          C       0.30083   0.65538   0.87284  -0.02131
C          C       0.38202   0.62308   0.88140  -0.15624
C          C       0.44002   0.65078   0.91639   0.06529
C          C       0.34318   0.73732   0.93525   0.05526
C          C       0.28131   0.71293   0.90145  -0.14083
C          C       0.70575   0.05421   0.22148  -0.03719
C          C       0.74610   0.08032   0.13582   0.47747
C          C       0.81002   0.11473   0.10337  -0.01474
C          C       0.79609   0.11682   0.05024  -0.14256
C          C       0.84862   0.15668   0.01988   0.04650
C          C       0.93211   0.18908   0.08953   0.07345
C          C       0.88223   0.15087   0.12246  -0.14224
C          C       0.67865   0.96694   0.28778  -0.02735
C          C       0.56768   0.01869   0.34183   0.46830
C          C       0.55698   0.07085   0.38047  -0.03607
C          C       0.62899   0.10584   0.40158  -0.16583
C          C       0.61350   0.15921   0.43409   0.05656
C          C       0.46268   0.14539   0.42817   0.06601
C          C       0.47230   0.09087   0.39600  -0.13344
C          C       0.81750   0.96422   0.79558  -0.02745
C          C       0.90845   0.99189   0.86671   0.49197
C          C       0.95066   0.04772   0.89446  -0.01962
C          C       0.00020   0.03474   0.93841  -0.11968
C          C       0.03639   0.08790   0.96536   0.07272
C          C       0.98250   0.16450   0.90739   0.05746
C          C       0.94265   0.11492   0.87881  -0.15147
C          C       0.79620   0.05187   0.72957  -0.03055
C          C       0.76306   0.13396   0.66676   0.47617
C          C       0.69909   0.15564   0.62791  -0.02208
C          C       0.61804   0.12360   0.61919  -0.15501
C          C       0.56058   0.15076   0.58361   0.06250
C          C       0.65746   0.23651   0.56421   0.05514
C          C       0.71876   0.21246   0.59855  -0.14174
C          C       0.20687   0.44534   0.27704  -0.03509
C          C       0.24527   0.41793   0.36299   0.47768
C          C       0.30985   0.38394   0.39553  -0.01312
C          C       0.29571   0.38226   0.44862  -0.14188
C          C       0.34942   0.34334   0.47924   0.04671
C          C       0.43375   0.31052   0.40966   0.07591
C          C       0.38275   0.34800   0.37649  -0.13953
C          C       0.17886   0.53142   0.21057  -0.02529
C          C       0.06987   0.47924   0.15658   0.46923
C          C       0.05876   0.42671   0.11830  -0.03548
C          C       0.13053   0.39124   0.09713  -0.16436
C          C       0.11485   0.33789   0.06476   0.05573
C          C       0.96398   0.35266   0.07134   0.06638
C          C       0.97374   0.40731   0.10329  -0.13245
C          C       0.31893   0.53565   0.70517  -0.02890
C          C       0.41037   0.50875   0.63383   0.48957
C          C       0.45168   0.45280   0.60567  -0.01985
C          C       0.50118   0.46553   0.56173  -0.12039
C          C       0.53749   0.41214   0.53484   0.07619
C          C       0.48332   0.33576   0.59263   0.06116
C          C       0.44343   0.38557   0.62126  -0.15246
C          C       0.29855   0.44741   0.77134  -0.03337
C          C       0.26544   0.36704   0.83516   0.47829
C          C       0.20044   0.34486   0.87306  -0.02439
C          C       0.11909   0.37705   0.88126  -0.15413
C          C       0.06051   0.34951   0.91586   0.06369
C          C       0.15683   0.26276   0.93509   0.05449
C          C       0.21926   0.28712   0.90177  -0.14141
C          C       0.74983   0.00021   0.25458   0.05035
C          C       0.74878  -0.00026   0.76238   0.05393
C          C       0.25052   0.49982   0.24434   0.05004
C          C       0.25100   0.49981   0.73847   0.05738
C          C       0.20524   0.05378   0.77829  -0.03554
C          C       0.24374   0.08120   0.86397   0.47958
C          C       0.30833   0.11498   0.89652  -0.01508
C          C       0.29479   0.11691   0.94969  -0.14128
C          C       0.34815   0.15624   0.97997   0.04658
C          C       0.43134   0.18845   0.91008   0.07455
C          C       0.38078   0.15057   0.87729  -0.14017
C          C       0.17966   0.96642   0.71194  -0.02643
C          C       0.06901   0.01818   0.65773   0.46878
C          C       0.05842   0.07067   0.61915  -0.03587
C          C       0.13010   0.10611   0.59812  -0.16315
C          C       0.11393   0.15943   0.56564   0.05491
C          C       0.96323   0.14500   0.57193   0.06267
C          C       0.97350   0.09050   0.60402  -0.13118
C          C       0.31969   0.96436   0.20448  -0.02795
C          C       0.41126   0.99167   0.13346   0.49224
C          C       0.45212   0.04765   0.10536  -0.02013
C          C       0.50133   0.03471   0.06124  -0.12190
C          C       0.53707   0.08794   0.03428   0.07415
C          C       0.48286   0.16449   0.09228   0.05993
C          C       0.44349   0.11485   0.12092  -0.15029
C          C       0.29848   0.05265   0.27027  -0.02901
C          C       0.26471   0.13457   0.33316   0.47572
C          C       0.20036   0.15620   0.37184  -0.02101
C          C       0.11952   0.12384   0.38038  -0.15621
C          C       0.06155   0.15051   0.41583   0.06244
C          C       0.15756   0.23658   0.43574   0.05668
C          C       0.21932   0.21305   0.40149  -0.14457
C          C       0.70671   0.44516   0.72309  -0.03551
C          C       0.74765   0.41943   0.63708   0.47171
C          C       0.81097   0.38424   0.60461  -0.01431
C          C       0.79637   0.38242   0.55151  -0.14338
C          C       0.84940   0.34308   0.52081   0.04564
C          C       0.93391   0.31002   0.59014   0.07461
C          C       0.88352   0.34773   0.62344  -0.14000
C          C       0.67722   0.53231   0.78888  -0.02642
C          C       0.56798   0.47990   0.84328   0.46866
C          C       0.55792   0.42722   0.88160  -0.03811
C          C       0.63000   0.39173   0.90251  -0.16292
C          C       0.61478   0.33814   0.93473   0.05558
C          C       0.46385   0.35252   0.92860   0.06484
C          C       0.47321   0.40741   0.89685  -0.13092
C          C       0.81726   0.53580   0.29475  -0.02965
C          C       0.91038   0.50863   0.36525   0.49082
C          C       0.95101   0.45273   0.39376  -0.01574
C          C       0.00021   0.46568   0.43774  -0.12247
C          C       0.03655   0.41238   0.46472   0.07915
C          C       0.98272   0.33581   0.40711   0.06341
C          C       0.94254   0.38546   0.37845  -0.15149
C          C       0.79689   0.44805   0.22858  -0.03072
C          C       0.76353   0.36710   0.16520   0.47568
C          C       0.69918   0.34462   0.12716  -0.02134
C          C       0.61798   0.37692   0.11860  -0.15597
C          C       0.55999   0.34922   0.08361   0.06517
C          C       0.65683   0.26268   0.06475   0.05529
C          C       0.71870   0.28707   0.09855  -0.14073
C          C       0.29426   0.94579   0.77852  -0.03694
C          C       0.25390   0.91968   0.86418   0.47755
C          C       0.18999   0.88527   0.89663  -0.01481
C          C       0.20391   0.88318   0.94976  -0.14244
C          C       0.15139   0.84332   0.98012   0.04648
C          C       0.06790   0.81092   0.91047   0.07365
C          C       0.11778   0.84913   0.87754  -0.14240
C          C       0.32135   0.03306   0.71222  -0.02743
C          C       0.43233   0.98131   0.65817   0.46818
C          C       0.44303   0.92915   0.61953  -0.03605
C          C       0.37101   0.89416   0.59842  -0.16595
C          C       0.38650   0.84079   0.56591   0.05647
C          C       0.53733   0.85461   0.57183   0.06643
C          C       0.52771   0.90913   0.60400  -0.13357
C          C       0.18250   0.03578   0.20442  -0.02777
C          C       0.09156   0.00812   0.13329   0.49205
C          C       0.04934   0.95228   0.10554  -0.01967
C          C      -0.00020   0.96526   0.06159  -0.11984
C          C       0.96361   0.91210   0.03464   0.07282
C          C       0.01751   0.83550   0.09261   0.05753
C          C       0.05736   0.88508   0.12119  -0.15114
C          C       0.20380   0.94813   0.27043  -0.03082
C          C       0.23695   0.86604   0.33324   0.47616
C          C       0.30092   0.84436   0.37209  -0.02220
C          C       0.38197   0.87640   0.38081  -0.15493
C          C       0.43943   0.84924   0.41639   0.06259
C          C       0.34255   0.76349   0.43579   0.05515
C          C       0.28125   0.78754   0.40145  -0.14205
C          C       0.79314   0.55466   0.72296  -0.03491
C          C       0.75473   0.58207   0.63701   0.47754
C          C       0.69015   0.61606   0.60447  -0.01310
C          C       0.70430   0.61774   0.55138  -0.14170
C          C       0.65059   0.65666   0.52076   0.04672
C          C       0.56626   0.68948   0.59035   0.07584
C          C       0.61726   0.65200   0.62351  -0.13948
C          C       0.82114   0.46858   0.78943  -0.02521
C          C       0.93013   0.52076   0.84343   0.46941
C          C       0.94125   0.57329   0.88170  -0.03554
C          C       0.86947   0.60876   0.90287  -0.16430
C          C       0.88515   0.66211   0.93524   0.05547
C          C       0.03602   0.64734   0.92866   0.06660
C          C       0.02627   0.59269   0.89671  -0.13229
C          C       0.68108   0.46435   0.29484  -0.02876
C          C       0.58964   0.49125   0.36617   0.48962
C          C       0.54832   0.54719   0.39433  -0.01982
C          C       0.49882   0.53447   0.43827  -0.12027
C          C       0.46252   0.58786   0.46516   0.07603
C          C       0.51669   0.66424   0.40737   0.06116
C          C       0.55657   0.61443   0.37874  -0.15243
C          C       0.70146   0.55258   0.22866  -0.03330
C          C       0.73456   0.63296   0.16484   0.47863
C          C       0.79956   0.65514   0.12694  -0.02454
C          C       0.88091   0.62295   0.11875  -0.15407
C          C       0.93950   0.65049   0.08415   0.06367
C          C       0.84317   0.73724   0.06491   0.05413
C          C       0.78075   0.71288   0.09823  -0.14128
C          C       0.25018  -0.00021   0.74542   0.05040
C          C       0.25122   0.00026   0.23762   0.05395
C          C       0.74949   0.50018   0.75566   0.04996
C          C       0.74901   0.50019   0.26153   0.05694
N          N       0.58489   0.80601   0.03910  -0.23460
N          N       0.96814   0.81923   0.44670  -0.22894
N          N       0.47133   0.84723   0.95117  -0.23452
N          N       0.92221   0.79260   0.55732  -0.21257
N          N       0.08284   0.69476   0.46068  -0.23392
N          N       0.46707   0.68354   0.05306  -0.23472
N          N       0.97124   0.65233   0.54975  -0.24050
N          N       0.42311   0.70812   0.94242  -0.21701
N          N       0.91536   0.19478   0.03876  -0.23515
N          N       0.53162   0.18107   0.44651  -0.23542
N          N       0.02821   0.15272   0.95079  -0.23245
N          N       0.57753   0.20762   0.55700  -0.21199
N          N       0.41729   0.30576   0.46050  -0.23276
N          N       0.03281   0.31663   0.05270  -0.23277
N          N       0.52934   0.34741   0.54937  -0.23799
N          N       0.07676   0.29196   0.94195  -0.21542
N          N       0.41512   0.19399   0.96090  -0.23426
N          N       0.03187   0.18077   0.55330  -0.22897
N          N       0.52867   0.15277   0.04883  -0.23439
N          N       0.07780   0.20740   0.44269  -0.21291
N          N       0.91717   0.30524   0.53932  -0.23384
N          N       0.53294   0.31646   0.94694  -0.23465
N          N       0.02876   0.34767   0.45025  -0.24024
N          N       0.57690   0.29188   0.05758  -0.21717
N          N       0.08465   0.80522   0.96124  -0.23526
N          N       0.46838   0.81893   0.55349  -0.23554
N          N       0.97180   0.84728   0.04921  -0.23273
N          N       0.42247   0.79238   0.44300  -0.21185
N          N       0.58272   0.69424   0.53950  -0.23299
N          N       0.96720   0.68337   0.94730  -0.23271
N          N       0.47066   0.65259   0.45063  -0.23814
N          N       0.92324   0.70804   0.05806  -0.21516
O          O       0.73289   0.91607   0.18687  -0.24726
O          O       0.82431   0.94464   0.12093  -0.47596
O          O       0.84453   0.98715   0.32806  -0.24197
O          O       0.99088   0.01549   0.32339  -0.48402
O          O       0.63702   0.98493   0.82604  -0.24547
O          O       0.58278   0.06756   0.87769  -0.46763
O          O       0.76463   0.91982   0.69381  -0.23715
O          O       0.66374   0.83877   0.67432  -0.46630
O          O       0.23124   0.58525   0.31172  -0.24442
O          O       0.31919   0.55211   0.37889  -0.48012
O          O       0.34590   0.51488   0.17159  -0.24299
O          O       0.49234   0.48582   0.17483  -0.48514
O          O       0.13959   0.51478   0.67427  -0.24082
O          O       0.08196   0.43143   0.62444  -0.47176
O          O       0.26514   0.57795   0.80840  -0.23160
O          O       0.16452   0.66019   0.82709  -0.47200
O          O       0.76849   0.08374   0.18680  -0.24609
O          O       0.67845   0.05392   0.12051  -0.47839
O          O       0.65438   0.01264   0.32819  -0.24200
O          O       0.50768   0.98532   0.32249  -0.48691
O          O       0.86071   0.01523   0.82598  -0.24496
O          O       0.91329   0.93265   0.87853  -0.46863
O          O       0.73331   0.07966   0.69362  -0.23506
O          O       0.83464   0.16062   0.67434  -0.46610
O          O       0.26876   0.41501   0.31209  -0.24517
O          O       0.17672   0.44372   0.37848  -0.47658
O          O       0.15572   0.48300   0.17186  -0.24212
O          O       0.01042   0.51471   0.17450  -0.48682
O          O       0.36200   0.48524   0.67407  -0.24115
O          O       0.41605   0.56865   0.62309  -0.47131
O          O       0.23592   0.42137   0.80805  -0.23599
O          O       0.33726   0.34032   0.82806  -0.46597
O          O       0.26711   0.08393   0.81313  -0.24693
O          O       0.17569   0.05535   0.87908  -0.47623
O          O       0.15548   0.01285   0.67195  -0.24176
O          O       0.00913   0.98451   0.67661  -0.48436
O          O       0.36298   0.01507   0.17396  -0.24543
O          O       0.41723   0.93243   0.12231  -0.46770
O          O       0.23538   0.08018   0.30620  -0.23733
O          O       0.33626   0.16123   0.32568  -0.46588
O          O       0.76877   0.41475   0.68828  -0.24421
O          O       0.68082   0.44789   0.62111  -0.48051
O          O       0.65410   0.48512   0.82842  -0.24264
O          O       0.50766   0.51418   0.82517  -0.48556
O          O       0.86042   0.48522   0.32573  -0.24103
O          O       0.91804   0.56857   0.37556  -0.47173
O          O       0.73487   0.42205   0.19161  -0.23218
O          O       0.83548   0.33981   0.17291  -0.47165
O          O       0.23152   0.91626   0.81320  -0.24643
O          O       0.32155   0.94608   0.87949  -0.47802
O          O       0.34562   0.98736   0.67181  -0.24230
O          O       0.49233   0.01469   0.67751  -0.48643
O          O       0.13929   0.98476   0.17402  -0.24484
O          O       0.08671   0.06734   0.12148  -0.46858
O          O       0.26670   0.92034   0.30638  -0.23459
O          O       0.16537   0.83938   0.32566  -0.46646
O          O       0.73124   0.58499   0.68791  -0.24533
O          O       0.82328   0.55628   0.62152  -0.47631
O          O       0.84429   0.51700   0.82814  -0.24247
O          O       0.98959   0.48529   0.82550  -0.48665
O          O       0.63800   0.51476   0.32593  -0.24121
O          O       0.58396   0.43135   0.37691  -0.47129
O          O       0.76409   0.57863   0.19195  -0.23579
O          O       0.66274   0.65968   0.17195  -0.46652

