data_crystal

_audit_creation_method 'AiiDA-DDEC plugin'

_cell_length_a        12.13414
_cell_length_b        25.91749
_cell_length_c        35.69948

_cell_angle_alpha     89.90635
_cell_angle_beta     90.25022
_cell_angle_gamma     90.08625

_symmetry_space_group_name_Hall 'P 1'
_symmetry_space_group_name_H-M  'P 1'

loop_
_symmetry_equiv_pos_as_xyz
 'x,y,z'

loop_
_atom_site_label
_atom_site_type_symbol
_atom_site_fract_x
_atom_site_fract_y
_atom_site_fract_z
_atom_site_charge
Zn         Zn      0.78190   0.79051   0.33390   0.77698
Zn         Zn      0.77396   0.82671   0.19395   0.78620
Zn         Zn      0.04787   0.72585   0.49357  -0.12319
Zn         Zn      0.21759   0.29063   0.16605   0.77751
Zn         Zn      0.22627   0.32660   0.30596   0.78510
Zn         Zn      0.95230   0.22393   0.00645  -0.12475
Zn         Zn      0.21811   0.20950   0.66610   0.77699
Zn         Zn      0.22604   0.17329   0.80605   0.78644
Zn         Zn      0.95212   0.27416   0.50643  -0.12328
Zn         Zn      0.78242   0.70937   0.83394   0.77741
Zn         Zn      0.77372   0.67339   0.69404   0.78519
Zn         Zn      0.04763   0.77709   0.99550  -0.11502
H          H       0.54620   0.72486   0.44957   0.13642
H          H       0.84329   0.74705   0.51461   0.09297
H          H       0.55221   0.67900   0.56522   0.14697
H          H       0.67361   0.72488   0.40119   0.12192
H          H       0.91715   0.84048   0.40207   0.14350
H          H       0.86712   0.81486   0.47636   0.13246
H          H       0.63617   0.67691   0.61641   0.12603
H          H       0.96113   0.72323   0.64033   0.13198
H          H       0.92266   0.74121   0.56490   0.09785
H          H       0.35134   0.74724   0.47829   0.10184
H          H       0.21176   0.61182   0.52256   0.12147
H          H       0.43928   0.60753   0.53228   0.13330
H          H       0.30568   0.82396   0.24634   0.14386
H          H       0.34597   0.76064   0.35726   0.12809
H          H       0.02472   0.76378   0.30645   0.14195
H          H       0.52193   0.74635   0.33541   0.12151
H          H       0.67557   0.86834   0.27747   0.13215
H          H       0.45104   0.87264   0.26321   0.14088
H          H       0.22541   0.77044   0.41137   0.09678
H          H       0.96129   0.66510   0.41455   0.11473
H          H       0.01149   0.68610   0.34028   0.12678
H          H       0.93480   0.77101   0.25575   0.12177
H          H      -0.00228   0.88611   0.17508   0.13899
H          H       0.18905   0.87053   0.21601   0.13815
H          H       0.71658   0.59477   0.32640   0.13903
H          H       0.01292   0.59528   0.23108   0.12734
H          H       0.96250   0.67599   0.26314   0.11617
H          H       0.09094   0.50695   0.26218   0.11669
H          H       0.16448   0.43096   0.22832   0.11707
H          H       0.85006   0.40818   0.17572   0.13523
H          H       0.69265   0.67915   0.24428   0.11510
H          H       0.59429   0.60107   0.26762   0.11320
H          H       0.38698   0.74040   0.20382   0.13432
H          H       0.48528   0.53150   0.22722   0.12192
H          H       0.41502   0.44736   0.25074   0.11892
H          H       0.20812   0.52590   0.32914   0.14079
H          H       0.45372   0.22490   0.05051   0.13644
H          H       0.15673   0.24688   0.98537   0.09255
H          H       0.44756   0.17907   0.93495   0.14655
H          H       0.32660   0.22520   0.09891   0.12234
H          H       0.08303   0.34042   0.09767   0.14406
H          H       0.13281   0.31462   0.02343   0.13322
H          H       0.36362   0.17664   0.88385   0.13220
H          H       0.03893   0.22295   0.85966   0.13197
H          H       0.07761   0.24112   0.93502   0.09839
H          H       0.64893   0.24717   0.02179   0.10279
H          H       0.78753   0.11201   0.97741   0.12190
H          H       0.55992   0.10763   0.96787   0.13336
H          H       0.69452   0.32384   0.25358   0.14366
H          H       0.65382   0.26075   0.14272   0.12830
H          H       0.97520   0.26400   0.19351   0.14313
H          H       0.47743   0.24658   0.16457   0.12153
H          H       0.32493   0.36842   0.22248   0.13187
H          H       0.54945   0.37259   0.23670   0.14108
H          H       0.77432   0.27043   0.08855   0.09698
H          H       0.03806   0.16525   0.08567   0.11432
H          H       0.98807   0.18635   0.15987   0.12669
H          H       0.06523   0.27113   0.24420   0.12193
H          H       0.00254   0.38582   0.32489   0.13946
H          H       0.81124   0.37019   0.28391   0.13813
H          H       0.28380   0.09553   0.17338   0.13944
H          H       0.98782   0.09495   0.26893   0.12696
H          H       0.03812   0.17597   0.23688   0.11642
H          H       0.90926   0.00689   0.23759   0.11657
H          H       0.83530   0.93093   0.27174   0.11740
H          H       0.15021   0.90772   0.32388   0.13868
H          H       0.30746   0.17932   0.25587   0.11522
H          H       0.40526   0.10133   0.23252   0.11251
H          H       0.61346   0.24035   0.29629   0.13422
H          H       0.51364   0.03132   0.27276   0.12072
H          H       0.58440   0.94740   0.24949   0.11854
H          H       0.79134   0.02655   0.17108   0.14077
H          H       0.45381   0.27514   0.55043   0.13649
H          H       0.15671   0.25295   0.48539   0.09279
H          H       0.44780   0.32100   0.43477   0.14721
H          H       0.32640   0.27512   0.59881   0.12201
H          H       0.08286   0.15952   0.59793   0.14336
H          H       0.13289   0.18515   0.52364   0.13243
H          H       0.36383   0.32309   0.38359   0.12630
H          H       0.03887   0.27676   0.35968   0.13227
H          H       0.07734   0.25879   0.43510   0.09765
H          H       0.64868   0.25276   0.52170   0.10161
H          H       0.78824   0.38818   0.47743   0.12170
H          H       0.56072   0.39248   0.46772   0.13321
H          H       0.69433   0.17603   0.75366   0.14375
H          H       0.65405   0.23936   0.64273   0.12810
H          H       0.97530   0.23622   0.69355   0.14215
H          H       0.47809   0.25365   0.66459   0.12160
H          H       0.32445   0.13167   0.72253   0.13215
H          H       0.54897   0.12736   0.73679   0.14083
H          H       0.77458   0.22957   0.58863   0.09673
H          H       0.03874   0.33489   0.58544   0.11503
H          H       0.98856   0.31388   0.65971   0.12685
H          H       0.06521   0.22898   0.74425   0.12185
H          H       0.00227   0.11389   0.82492   0.13895
H          H       0.81095   0.12947   0.78399   0.13794
H          H       0.28342   0.40523   0.67360   0.13935
H          H       0.98709   0.40471   0.76892   0.12718
H          H       0.03751   0.32401   0.73687   0.11593
H          H       0.90907   0.49305   0.73784   0.11624
H          H       0.83555   0.56905   0.77168   0.11700
H          H       0.14998   0.59183   0.82428   0.13584
H          H       0.30753   0.32083   0.75562   0.11506
H          H       0.40603   0.39888   0.73229   0.11332
H          H       0.61298   0.25959   0.79629   0.13432
H          H       0.51482   0.46854   0.77284   0.12139
H          H       0.58499   0.55267   0.74924   0.11887
H          H       0.79201   0.47401   0.67092   0.14164
H          H       0.54629   0.77510   0.94949   0.13671
H          H       0.84321   0.75312   0.01466   0.09419
H          H       0.55245   0.82093   0.06505   0.14303
H          H       0.67341   0.77479   0.90110   0.12249
H          H       0.91699   0.65959   0.90233   0.14427
H          H       0.86723   0.68538   0.97657   0.13363
H          H       0.63636   0.82337   0.11615   0.13215
H          H       0.96105   0.77705   0.14034   0.13215
H          H       0.92238   0.75888   0.06500   0.09726
H          H       0.35103   0.75284   0.97822   0.10330
H          H       0.21250   0.88801   0.02261   0.12166
H          H       0.44014   0.89239   0.03212   0.13359
H          H       0.30548   0.67616   0.74642   0.14367
H          H       0.34617   0.73925   0.85728   0.12824
H          H       0.02480   0.73601   0.80649   0.14291
H          H       0.52256   0.75342   0.83542   0.12147
H          H       0.67507   0.63158   0.77752   0.13196
H          H       0.45055   0.62741   0.76330   0.14105
H          H       0.22566   0.72957   0.91146   0.09609
H          H       0.96191   0.83472   0.91434   0.11334
H          H       0.01192   0.81364   0.84017   0.12627
H          H       0.93477   0.72887   0.75580   0.12176
H          H      -0.00253   0.61418   0.67511   0.13940
H          H       0.18876   0.62982   0.71609   0.13807
H          H       0.71622   0.90448   0.82661   0.13927
H          H       0.01219   0.90505   0.73106   0.12723
H          H       0.96188   0.82403   0.76311   0.11664
H          H       0.09076   0.99311   0.76240   0.11668
H          H       0.16473   0.06907   0.72825   0.11769
H          H       0.84980   0.09228   0.67612   0.13868
H          H       0.69256   0.82070   0.74413   0.11540
H          H       0.59473   0.89867   0.76749   0.11258
H          H       0.38655   0.75966   0.70371   0.13416
H          H       0.48633   0.96867   0.72722   0.12090
H          H       0.41555   0.05259   0.75050   0.11860
H          H       0.20870   0.97343   0.82893   0.14052
C          C       0.30621   0.48104   0.29115  -0.01535
C          C       0.59084   0.72149   0.47590  -0.27992
C          C       0.69875   0.73989   0.47967   0.19937
C          C       0.75643   0.73576   0.51354  -0.26015
C          C       0.70391   0.71344   0.54446   0.20773
C          C       0.59576   0.69500   0.54137  -0.27738
C          C       0.54059   0.69886   0.50703   0.19269
C          C       0.72890   0.75444   0.41150   0.07239
C          C       0.85716   0.81400   0.41376  -0.02066
C          C       0.83398   0.80109   0.45008  -0.10648
C          C       0.71897   0.69129   0.61236   0.09487
C          C       0.88772   0.71632   0.62369  -0.02582
C          C       0.86877   0.72630   0.58657  -0.09787
C          C       0.34125   0.70950   0.49086   0.06204
C          C       0.27443   0.63962   0.51483  -0.04116
C          C       0.38647   0.63670   0.52015  -0.13453
C          C       0.26979   0.80709   0.27130  -0.26583
C          C       0.33659   0.79459   0.30193   0.20090
C          C       0.29332   0.77068   0.33372  -0.26609
C          C       0.18126   0.75847   0.33424   0.21886
C          C       0.11245   0.77128   0.30425  -0.24687
C          C       0.15714   0.79631   0.27319   0.20614
C          C       0.53346   0.78132   0.31934   0.08376
C          C       0.60935   0.84460   0.28804  -0.01140
C          C       0.49910   0.84641   0.28020  -0.09159
C          C       0.16132   0.74364   0.40314   0.06993
C          C       0.02358   0.69044   0.40298  -0.04913
C          C       0.04577   0.70064   0.36610  -0.08694
C          C       0.97822   0.79923   0.23888   0.10592
C          C       0.01560   0.85893   0.19733  -0.03231
C          C       0.11030   0.85122   0.21742  -0.10061
C          C       0.79633   0.68966   0.31548   0.55620
C          C       0.83471   0.64110   0.29669  -0.02964
C          C       0.78126   0.59486   0.30547  -0.13179
C          C       0.81076   0.54958   0.28732   0.01897
C          C       0.89325   0.54816   0.25969   0.04960
C          C       0.94795   0.59475   0.25200  -0.11965
C          C       0.91940   0.64046   0.27014  -0.05774
C          C       0.92795   0.50149   0.23873   0.04043
C          C       0.03792   0.48569   0.24300  -0.11744
C          C       0.07963   0.44307   0.22400  -0.05758
C          C       0.01275   0.41547   0.19905  -0.02258
C          C       0.90263   0.42979   0.19477  -0.13858
C          C       0.86108   0.47176   0.21448   0.01357
C          C       0.05576   0.37100   0.17636   0.55737
C          C       0.60502   0.76142   0.20721   0.55503
C          C       0.54607   0.71510   0.22289  -0.01599
C          C       0.60398   0.67542   0.24085  -0.05572
C          C       0.54883   0.63175   0.25368  -0.11733
C          C       0.43436   0.62603   0.24975   0.04354
C          C       0.37755   0.66667   0.23163   0.01140
C          C       0.43235   0.71037   0.21842  -0.13974
C          C       0.38663   0.57729   0.26452   0.04316
C          C       0.42428   0.53051   0.24949  -0.11891
C          C       0.38498   0.48324   0.26263  -0.06585
C          C       0.26844   0.52708   0.30675  -0.14057
C          C       0.30922   0.57393   0.29368   0.02007
C          C       0.26000   0.43065   0.30517   0.55000
C          C       0.69383   0.98141   0.20913  -0.01931
C          C       0.40907   0.22151   0.02419  -0.28098
C          C       0.30125   0.23988   0.02035   0.19944
C          C       0.24357   0.23571   0.98647  -0.26016
C          C       0.29602   0.21340   0.95561   0.20565
C          C       0.40408   0.19503   0.95876  -0.27681
C          C       0.45922   0.19889   0.99311   0.19289
C          C       0.27125   0.25462   0.08848   0.07117
C          C       0.14295   0.31398   0.08601  -0.02148
C          C       0.16603   0.30097   0.04974  -0.10710
C          C       0.28089   0.19102   0.88778   0.08984
C          C       0.11232   0.21605   0.87632  -0.02615
C          C       0.13136   0.22617   0.91339  -0.09879
C          C       0.65866   0.20948   0.00922   0.06060
C          C       0.72499   0.13972   0.98519  -0.04136
C          C       0.61290   0.13678   0.97997  -0.13395
C          C       0.73030   0.30707   0.22861  -0.26530
C          C       0.66338   0.29467   0.19799   0.20186
C          C       0.70654   0.27082   0.16623  -0.26590
C          C       0.81859   0.25869   0.16571   0.21097
C          C       0.88752   0.27152   0.19567  -0.24972
C          C       0.84294   0.29638   0.22674   0.20766
C          C       0.46622   0.28149   0.18063   0.08468
C          C       0.39090   0.34469   0.21189  -0.01288
C          C       0.50120   0.34647   0.21970  -0.08963
C          C       0.83832   0.24369   0.09685   0.06266
C          C       0.97586   0.19056   0.09718  -0.04816
C          C       0.95377   0.20083   0.13402  -0.09500
C          C       0.02197   0.29929   0.26104   0.10537
C          C       0.98469   0.35874   0.30261  -0.03383
C          C       0.88995   0.35097   0.28255  -0.09962
C          C       0.20290   0.19052   0.18464   0.55292
C          C       0.16554   0.14147   0.20320  -0.02936
C          C       0.21895   0.09537   0.19427  -0.13259
C          C       0.18914   0.04980   0.21222   0.01776
C          C       0.10699   0.04812   0.23998   0.04864
C          C       0.05257   0.09463   0.24791  -0.11728
C          C       0.08094   0.14049   0.22980  -0.05740
C          C       0.07226   0.00127   0.26089   0.04069
C          C       0.96214   0.98553   0.25676  -0.11518
C          C       0.92030   0.94295   0.27591  -0.05836
C          C       0.98714   0.91507   0.30073  -0.02104
C          C       0.09744   0.92936   0.30490  -0.14186
C          C       0.13903   0.97149   0.28514   0.01113
C          C       0.94340   0.87014   0.32297   0.55405
C          C       0.39533   0.26148   0.29282   0.55401
C          C       0.45413   0.21522   0.27721  -0.01531
C          C       0.39607   0.17554   0.25931  -0.05652
C          C       0.45090   0.13190   0.24651  -0.11670
C          C       0.56529   0.12610   0.25051   0.04252
C          C       0.62228   0.16668   0.26865   0.01180
C          C       0.56777   0.21038   0.28175  -0.13990
C          C       0.61279   0.07744   0.23572   0.04197
C          C       0.57505   0.03047   0.25062  -0.11856
C          C       0.61469   0.98330   0.23754  -0.06475
C          C       0.73130   0.02761   0.19357  -0.13998
C          C       0.69031   0.07428   0.20660   0.02146
C          C       0.74132   0.93157   0.19484   0.55148
C          C       0.69390   0.51894   0.70888  -0.01915
C          C       0.40917   0.27851   0.52410  -0.27996
C          C       0.30126   0.26011   0.52033   0.19951
C          C       0.24358   0.26424   0.48646  -0.26021
C          C       0.29610   0.28656   0.45554   0.20750
C          C       0.40425   0.30500   0.45862  -0.27730
C          C       0.45942   0.30114   0.49297   0.19260
C          C       0.27111   0.24556   0.58850   0.07255
C          C       0.14285   0.18600   0.58624  -0.02079
C          C       0.16603   0.19891   0.54991  -0.10678
C          C       0.28103   0.30871   0.38764   0.09485
C          C       0.11228   0.28368   0.37631  -0.02687
C          C       0.13124   0.27370   0.41343  -0.09797
C          C       0.65876   0.29050   0.50914   0.06207
C          C       0.72558   0.36038   0.48516  -0.04102
C          C       0.61353   0.36331   0.47985  -0.13425
C          C       0.73022   0.19291   0.72869  -0.26599
C          C       0.66343   0.20541   0.69807   0.20103
C          C       0.70670   0.22932   0.66627  -0.26633
C          C       0.81876   0.24152   0.66575   0.21888
C          C       0.88757   0.22872   0.69575  -0.24686
C          C       0.84288   0.20369   0.72680   0.20635
C          C       0.46656   0.21868   0.68065   0.08409
C          C       0.39067   0.15540   0.71196  -0.01194
C          C       0.50091   0.15359   0.71979  -0.09154
C          C       0.83868   0.25636   0.59685   0.06932
C          C       0.97645   0.30955   0.59701  -0.04902
C          C       0.95427   0.29934   0.63389  -0.08676
C          C       0.02179   0.20077   0.76112   0.10636
C          C       0.98440   0.14107   0.80267  -0.03243
C          C       0.88970   0.14878   0.78258  -0.10083
C          C       0.20366   0.31035   0.68451   0.55612
C          C       0.16529   0.35890   0.70331  -0.02952
C          C       0.21874   0.40514   0.69453  -0.13206
C          C       0.18925   0.45042   0.71269   0.01906
C          C       0.10677   0.45184   0.74032   0.04983
C          C       0.05207   0.40525   0.74801  -0.11965
C          C       0.08061   0.35954   0.72986  -0.05800
C          C       0.07206   0.49852   0.76128   0.04013
C          C       0.96210   0.51431   0.75701  -0.11703
C          C       0.92039   0.55693   0.77601  -0.05772
C          C       0.98727   0.58454   0.80095  -0.02285
C          C       0.09739   0.57023   0.80523  -0.13928
C          C       0.13892   0.52826   0.78552   0.01398
C          C       0.94425   0.62901   0.82364   0.55772
C          C       0.39501   0.23858   0.79278   0.55492
C          C       0.45398   0.28492   0.77715  -0.01638
C          C       0.39617   0.32458   0.75913  -0.05564
C          C       0.45137   0.36826   0.74633  -0.11756
C          C       0.56580   0.37399   0.75036   0.04332
C          C       0.62250   0.33335   0.76851   0.01220
C          C       0.56767   0.28965   0.78170  -0.14000
C          C       0.61362   0.42272   0.73561   0.04292
C          C       0.57589   0.46951   0.75059  -0.11818
C          C       0.61513   0.51678   0.73741  -0.06428
C          C       0.73176   0.47289   0.69334  -0.14073
C          C       0.69109   0.42606   0.70646   0.02006
C          C       0.74001   0.56933   0.69483   0.55151
C          C       0.30618   0.01858   0.79087  -0.01966
C          C       0.59093   0.77849   0.97582  -0.28086
C          C       0.69876   0.76013   0.97965   0.19984
C          C       0.75640   0.76430   0.01353  -0.26019
C          C       0.70397   0.78659   0.04440   0.20589
C          C       0.59591   0.80496   0.04124  -0.27419
C          C       0.54079   0.80111   0.00689   0.19338
C          C       0.72876   0.74537   0.91152   0.07165
C          C       0.85707   0.68603   0.91399  -0.02042
C          C       0.83398   0.69903   0.95026  -0.10789
C          C       0.71909   0.80899   0.11222   0.09051
C          C       0.88765   0.78395   0.12369  -0.02605
C          C       0.86858   0.77380   0.08662  -0.09869
C          C       0.34134   0.79053   0.99079   0.06088
C          C       0.27508   0.86031   0.01483  -0.04155
C          C       0.38716   0.86324   0.02003  -0.13318
C          C       0.26970   0.69293   0.77139  -0.26530
C          C       0.33661   0.70533   0.80201   0.20118
C          C       0.29344   0.72918   0.83377  -0.26527
C          C       0.18139   0.74132   0.83431   0.21865
C          C       0.11249   0.72848   0.80434  -0.24948
C          C       0.15706   0.70363   0.77327   0.20720
C          C       0.53378   0.71851   0.81937   0.08449
C          C       0.60911   0.65531   0.78811  -0.01283
C          C       0.49881   0.65354   0.78030  -0.08998
C          C       0.16160   0.75631   0.90321   0.06965
C          C       0.02412   0.80938   0.90288  -0.04852
C          C       0.04620   0.79916   0.86602  -0.08801
C          C       0.97803   0.70071   0.73896   0.10536
C          C       0.01531   0.64126   0.69739  -0.03411
C          C       0.11005   0.64904   0.71745  -0.09912
C          C       0.79711   0.80949   0.81536   0.55331
C          C       0.83447   0.85853   0.79679  -0.02909
C          C       0.78107   0.90463   0.80573  -0.13290
C          C       0.81090   0.95020   0.78777   0.01815
C          C       0.89305   0.95188   0.76001   0.04852
C          C       0.94744   0.90536   0.75208  -0.11717
C          C       0.91906   0.85951   0.77019  -0.05765
C          C       0.92776  -0.00126   0.73911   0.04074
C          C       0.03788   0.01447   0.74323  -0.11535
C          C       0.07973   0.05705   0.72408  -0.05836
C          C       0.01288   0.08493   0.69927  -0.02097
C          C       0.90257   0.07064   0.69510  -0.14191
C          C       0.86099   0.02851   0.71486   0.01105
C          C       0.05662   0.12986   0.67703   0.55418
C          C       0.60467   0.73851   0.70718   0.55435
C          C       0.54588   0.78478   0.72279  -0.01549
C          C       0.60395   0.82445   0.74069  -0.05633
C          C       0.54912   0.86809   0.75350  -0.11676
C          C       0.43472   0.87389   0.74950   0.04206
C          C       0.37772   0.83331   0.73137   0.01353
C          C       0.43223   0.78961   0.71826  -0.14069
C          C       0.38725   0.92256   0.76431   0.04179
C          C       0.42498   0.96952   0.74938  -0.11872
C          C       0.38529   0.01669   0.76245  -0.06436
C          C       0.26877   0.97238   0.80646  -0.14001
C          C       0.30973   0.92571   0.79343   0.02164
C          C       0.25864   0.06842   0.80514   0.55216
N          N       0.79105   0.78473   0.39014  -0.26643
N          N       0.75144   0.76353   0.44854   0.04649
N          N       0.79401   0.69454   0.63926  -0.25478
N          N       0.76072   0.71016   0.57931   0.04835
N          N       0.24735   0.68515   0.49686  -0.21806
N          N       0.42965   0.68150   0.50448   0.02365
N          N       0.62953   0.80419   0.31259  -0.26979
N          N       0.45095   0.80638   0.30048   0.02401
N          N       0.09582   0.71748   0.42582  -0.22295
N          N       0.13431   0.73463   0.36615   0.01479
N          N       0.93442   0.82620   0.21087  -0.27257
N          N       0.08615   0.81328   0.24391   0.02528
N          N       0.74985   0.50269   0.29765   0.52747
N          N       0.74347   0.48337   0.20877   0.52575
N          N       0.25818   0.66466   0.22461   0.53174
N          N       0.26841   0.62067   0.31192   0.53066
N          N       0.20914   0.28489   0.10974  -0.26660
N          N       0.24863   0.26355   0.05140   0.04690
N          N       0.20587   0.19416   0.86085  -0.25609
N          N       0.23926   0.21003   0.92074   0.04993
N          N       0.75236   0.18517   0.00315  -0.21462
N          N       0.57005   0.18150   0.99568   0.02355
N          N       0.37028   0.30434   0.18741  -0.27037
N          N       0.54902   0.30648   0.19943   0.02304
N          N       0.90367   0.21750   0.07425  -0.22397
N          N       0.86537   0.23479   0.13387   0.03726
N          N       0.06588   0.32621   0.28903  -0.27137
N          N       0.91402   0.31320   0.25604   0.02474
N          N       0.24952   0.00295   0.20132   0.52819
N          N       0.25649   0.98346   0.29110   0.52713
N          N       0.74170   0.16471   0.27558   0.53276
N          N       0.73126   0.12097   0.18821   0.53208
N          N       0.20896   0.21527   0.60986  -0.26648
N          N       0.24858   0.23647   0.55146   0.04673
N          N       0.20599   0.30545   0.36074  -0.25448
N          N       0.23929   0.28984   0.42069   0.04861
N          N       0.75266   0.31485   0.50313  -0.21779
N          N       0.57036   0.31851   0.49552   0.02332
N          N       0.37049   0.19582   0.68741  -0.26985
N          N       0.54907   0.19362   0.69952   0.02399
N          N       0.90418   0.28252   0.57417  -0.22277
N          N       0.86571   0.26536   0.63384   0.01510
N          N       0.06558   0.17380   0.78913  -0.27249
N          N       0.91385   0.18672   0.75609   0.02503
N          N       0.25015   0.49730   0.70236   0.52716
N          N       0.25651   0.51663   0.79123   0.52570
N          N       0.74187   0.33532   0.77543   0.53144
N          N       0.73185   0.37933   0.68817   0.53114
N          N       0.79085   0.71510   0.89026  -0.26602
N          N       0.75142   0.73647   0.94859   0.04705
N          N       0.79410   0.80585   0.13915  -0.25623
N          N       0.76071   0.78996   0.07926   0.04935
N          N       0.24766   0.81486   0.99690  -0.21416
N          N       0.42997   0.81851   0.00432   0.02370
N          N       0.62973   0.69566   0.81260  -0.27020
N          N       0.45097   0.69352   0.80057   0.02324
N          N       0.09620   0.78241   0.92585  -0.23371
N          N       0.13463   0.76522   0.86616   0.01355
N          N       0.93412   0.67378   0.71098  -0.27162
N          N       0.08598   0.68681   0.74396   0.02483
N          N       0.75056   0.99705   0.79868   0.52734
N          N       0.74354   0.01652   0.70889   0.52737
N          N       0.25830   0.83529   0.72443   0.53240
N          N       0.26880   0.87902   0.81182   0.53237
O          O       0.65365   0.50776   0.30868  -0.33068
O          O       0.79877   0.46064   0.29480  -0.34994
O          O       0.71133   0.52843   0.21390  -0.33941
O          O       0.68221   0.44714   0.19908  -0.34903
O          O       0.70699   0.76574   0.21813  -0.55793
O          O       0.55590   0.79138   0.18537  -0.56120
O          O       0.29470   0.39022   0.28713  -0.55795
O          O       0.19355   0.42986   0.33164  -0.54994
O          O       0.21064   0.70554   0.21591  -0.34951
O          O       0.21074   0.62215   0.22732  -0.34832
O          O       0.33237   0.65821   0.31451  -0.34778
O          O       0.17244   0.61986   0.32389  -0.33639
O          O       0.85051   0.73149   0.30686  -0.56104
O          O       0.71643   0.68790   0.33744  -0.55360
O          O       0.15077   0.35358   0.18756  -0.56247
O          O      -0.00035   0.35427   0.14967  -0.54126
O          O       0.34668   0.00809   0.19125  -0.32944
O          O       0.19976   0.96091   0.20268  -0.34991
O          O       0.28851   0.02862   0.28613  -0.33862
O          O       0.31780   0.94736   0.30091  -0.34958
O          O       0.29332   0.26568   0.28195  -0.55814
O          O       0.44449   0.29155   0.31452  -0.56009
O          O       0.70825   0.89060   0.21278  -0.55989
O          O       0.80733   0.93212   0.16823  -0.54776
O          O       0.78948   0.20558   0.28417  -0.34898
O          O       0.78902   0.12224   0.27277  -0.35031
O          O       0.66758   0.15853   0.18551  -0.34876
O          O       0.82701   0.11999   0.17602  -0.33702
O          O       0.14676   0.23169   0.19315  -0.55905
O          O       0.28330   0.19009   0.16283  -0.55198
O          O       0.84659   0.85402   0.31241  -0.55995
O          O       0.00061   0.85154   0.34872  -0.54152
O          O       0.34635   0.49224   0.69132  -0.33024
O          O       0.20123   0.53935   0.70521  -0.34976
O          O       0.28865   0.47157   0.78611  -0.33948
O          O       0.31779   0.55286   0.80092  -0.34875
O          O       0.29306   0.23425   0.78184  -0.55813
O          O       0.44411   0.20859   0.81460  -0.56106
O          O       0.70529   0.60978   0.71286  -0.55838
O          O       0.80644   0.57013   0.66835  -0.54961
O          O       0.78941   0.29447   0.78417  -0.34954
O          O       0.78939   0.37779   0.77253  -0.34785
O          O       0.66784   0.34182   0.68554  -0.34816
O          O       0.82773   0.38016   0.67612  -0.33628
O          O       0.14949   0.26851   0.69313  -0.56131
O          O       0.28355   0.31210   0.66255  -0.55330
O          O       0.84922   0.64641   0.81244  -0.56274
O          O       0.00035   0.64573   0.85033  -0.54113
O          O       0.65339   0.99192   0.80875  -0.32967
O          O       0.80033   0.03908   0.79734  -0.34914
O          O       0.71151   0.97137   0.71387  -0.33890
O          O       0.68224   0.05263   0.69908  -0.34980
O          O       0.70668   0.73432   0.71805  -0.55804
O          O       0.55553   0.70846   0.68547  -0.56041
O          O       0.29161   0.10939   0.78717  -0.55978
O          O       0.19266   0.06788   0.83176  -0.54856
O          O       0.21052   0.79442   0.71582  -0.34930
O          O       0.21099   0.87776   0.72723  -0.35031
O          O       0.33248   0.84146   0.81449  -0.34890
O          O       0.17299   0.87999   0.82395  -0.33714
O          O       0.85323   0.76831   0.80684  -0.55869
O          O       0.71671   0.80991   0.83717  -0.55269
O          O       0.15342   0.14598   0.68759  -0.55996
O          O      -0.00058   0.14847   0.65127  -0.54157

