data_crystal

_audit_creation_method 'AiiDA-DDEC plugin'

_cell_length_a        11.79088
_cell_length_b        26.19763
_cell_length_c        29.84261

_cell_angle_alpha     89.98927
_cell_angle_beta     90.00045
_cell_angle_gamma     90.00046

_symmetry_space_group_name_Hall 'P 1'
_symmetry_space_group_name_H-M  'P 1'

loop_
_symmetry_equiv_pos_as_xyz
 'x,y,z'

loop_
_atom_site_label
_atom_site_type_symbol
_atom_site_fract_x
_atom_site_fract_y
_atom_site_fract_z
_atom_site_charge
K          K       0.89913   0.50000   0.25000   0.92309
K          K       0.57971   0.50000   0.25000   0.92500
K          K       0.59763  -0.00000   0.75000   0.92149
K          K       0.91987  -0.00000   0.74999   0.92577
K          K       0.10088   0.50000   0.75000   0.92309
K          K       0.42031   0.50000   0.75000   0.92497
K          K       0.40238   0.00000   0.25000   0.92143
K          K       0.08014   0.00000   0.25001   0.92578
Cd         Cd      0.20077   0.27102   0.51364   1.00344
Cd         Cd      0.73853   0.50623   0.36765   1.03589
Cd         Cd      0.29765   0.23020   0.01390   1.00334
Cd         Cd      0.75822   0.99455   0.86753   1.03411
Cd         Cd      0.20077   0.72898   0.98637   1.00345
Cd         Cd      0.73854   0.49377   0.13235   1.03584
Cd         Cd      0.29765   0.76980   0.48610   1.00331
Cd         Cd      0.75822   0.00545   0.63247   1.03405
Cd         Cd      0.24150   0.50000   0.24999   1.04087
Cd         Cd      0.25703  -0.00000   0.75000   1.03570
Cd         Cd      0.79924   0.72898   0.48637   1.00320
Cd         Cd      0.26148   0.49377   0.63235   1.03587
Cd         Cd      0.70237   0.76980   0.98610   1.00355
Cd         Cd      0.24179   0.00545   0.13247   1.03413
Cd         Cd      0.79924   0.27102   0.01363   1.00330
Cd         Cd      0.26147   0.50623   0.86765   1.03589
Cd         Cd      0.70236   0.23020   0.51390   1.00352
Cd         Cd      0.24179   0.99455   0.36753   1.03408
Cd         Cd      0.75851   0.50001   0.75001   1.04080
Cd         Cd      0.74297   0.00000   0.25000   1.03572
H          H       0.33510   0.38691   0.30599   0.36950
H          H       0.14700   0.61606   0.29892   0.36738
H          H       0.21428   0.37543   0.38195   0.13439
H          H       0.92961   0.38952   0.29244   0.11359
H          H       0.91512   0.28482   0.40369   0.12617
H          H       0.48748   0.27692   0.29681   0.10955
H          H       0.64061   0.21259   0.30807   0.10633
H          H       0.83135   0.24062   0.33248   0.11283
H          H       0.26628   0.64476   0.36884   0.13453
H          H       0.57142   0.73419   0.37862   0.12967
H          H       0.55110   0.61051   0.28378   0.11059
H          H       0.99451   0.72131   0.27096   0.11009
H          H       0.84168   0.78699   0.27174   0.11004
H          H       0.65182   0.76472   0.30118   0.11186
H          H       0.16072   0.11268   0.80666   0.36923
H          H       0.35366   0.88367   0.79728   0.36728
H          H       0.28422   0.12444   0.88302   0.13428
H          H       0.56709   0.11082   0.79257   0.11369
H          H       0.58371   0.21493   0.90413   0.12716
H          H       0.01038   0.22347   0.79708   0.10989
H          H       0.85748   0.28799   0.80833   0.10687
H          H       0.66665   0.26024   0.83261   0.11253
H          H       0.23443   0.85464   0.86898   0.13496
H          H       0.92877   0.76548   0.87861   0.12860
H          H       0.94976   0.88939   0.78400   0.11107
H          H       0.50583   0.77926   0.77046   0.10891
H          H       0.65790   0.71317   0.77187   0.11035
H          H       0.84765   0.73528   0.80154   0.11144
H          H       0.33510   0.61309   0.19401   0.36936
H          H       0.14699   0.38394   0.20105   0.36749
H          H       0.21428   0.62457   0.11805   0.13450
H          H       0.92960   0.61048   0.20755   0.11359
H          H       0.91512   0.71518   0.09631   0.12641
H          H       0.48748   0.72308   0.20319   0.10963
H          H       0.64061   0.78741   0.19193   0.10641
H          H       0.83136   0.75938   0.16752   0.11295
H          H       0.26630   0.35524   0.13115   0.13462
H          H       0.57142   0.26581   0.12138   0.12949
H          H       0.55110   0.38949   0.21622   0.11060
H          H       0.99451   0.27869   0.22904   0.11000
H          H       0.84168   0.21301   0.22826   0.10993
H          H       0.65182   0.23529   0.19882   0.11177
H          H       0.16072   0.88734   0.69334   0.36964
H          H       0.35366   0.11633   0.70272   0.36718
H          H       0.28422   0.87556   0.61698   0.13421
H          H       0.56710   0.88919   0.70743   0.11385
H          H       0.58372   0.78508   0.59587   0.12693
H          H       0.01039   0.77653   0.70292   0.10986
H          H       0.85747   0.71201   0.69167   0.10676
H          H       0.66665   0.73976   0.66739   0.11242
H          H       0.23443   0.14536   0.63102   0.13492
H          H       0.92877   0.23452   0.62139   0.12868
H          H       0.94976   0.11061   0.71600   0.11105
H          H       0.50583   0.22074   0.72954   0.10896
H          H       0.65790   0.28683   0.72813   0.11044
H          H       0.84766   0.26473   0.69846   0.11144
H          H       0.66491   0.61309   0.69401   0.36946
H          H       0.85301   0.38394   0.70108   0.36719
H          H       0.78573   0.62457   0.61805   0.13421
H          H       0.07040   0.61048   0.70756   0.11367
H          H       0.08489   0.71518   0.59631   0.12657
H          H       0.51253   0.72308   0.70319   0.10990
H          H       0.35940   0.78741   0.69193   0.10644
H          H       0.16866   0.75938   0.66752   0.11272
H          H       0.73373   0.35524   0.63116   0.13479
H          H       0.42859   0.26582   0.62138   0.12942
H          H       0.44891   0.38949   0.71622   0.11048
H          H       0.00550   0.27869   0.72904   0.10973
H          H       0.15833   0.21301   0.72826   0.10989
H          H       0.34820   0.23529   0.69882   0.11201
H          H       0.83929   0.88733   0.19334   0.36912
H          H       0.64635   0.11633   0.20272   0.36736
H          H       0.71579   0.87556   0.11698   0.13457
H          H       0.43293   0.88918   0.20743   0.11360
H          H       0.41630   0.78508   0.09587   0.12673
H          H       0.98963   0.77654   0.20292   0.10953
H          H       0.14253   0.71201   0.19167   0.10673
H          H       0.33337   0.73976   0.16739   0.11263
H          H       0.76558   0.14536   0.13102   0.13481
H          H       0.07124   0.23453   0.12139   0.12887
H          H       0.05025   0.11061   0.21600   0.11120
H          H       0.49418   0.22074   0.22954   0.10908
H          H       0.34211   0.28683   0.22813   0.11048
H          H       0.15236   0.26473   0.19846   0.11131
H          H       0.66491   0.38691   0.80599   0.36940
H          H       0.85302   0.61606   0.79895   0.36728
H          H       0.78573   0.37543   0.88195   0.13425
H          H       0.07041   0.38953   0.79245   0.11371
H          H       0.08490   0.28482   0.90369   0.12644
H          H       0.51253   0.27692   0.79681   0.10986
H          H       0.35940   0.21259   0.80807   0.10634
H          H       0.16866   0.24062   0.83248   0.11260
H          H       0.73372   0.64476   0.86885   0.13484
H          H       0.42859   0.73419   0.87862   0.12945
H          H       0.44891   0.61051   0.78378   0.11042
H          H       0.00550   0.72131   0.77096   0.10971
H          H       0.15833   0.78699   0.77174   0.10994
H          H       0.34819   0.76472   0.80118   0.11213
H          H       0.83929   0.11267   0.30666   0.36929
H          H       0.64635   0.88367   0.29728   0.36745
H          H       0.71579   0.12444   0.38302   0.13453
H          H       0.43291   0.11082   0.29257   0.11362
H          H       0.41629   0.21493   0.40413   0.12682
H          H       0.98962   0.22348   0.29708   0.10962
H          H       0.14254   0.28800   0.30833   0.10691
H          H       0.33336   0.26024   0.33261   0.11273
H          H       0.76558   0.85464   0.36898   0.13469
H          H       0.07124   0.76548   0.37861   0.12873
H          H       0.05025   0.88939   0.28400   0.11134
H          H       0.49418   0.77926   0.27046   0.10914
H          H       0.34211   0.71317   0.27187   0.11039
H          H       0.15236   0.73528   0.30154   0.11119
C          C       0.11921   0.30351   0.43724   0.55042
C          C       0.06929   0.32779   0.39665  -0.02152
C          C       0.12915   0.36435   0.37183  -0.10744
C          C       0.07841   0.38640   0.33408  -0.03211
C          C       0.96780   0.37223   0.32187  -0.13171
C          C       0.90664   0.33601   0.34669   0.06087
C          C       0.95938   0.31340   0.38384  -0.12768
C          C       0.13868   0.42610   0.30681   0.58048
C          C       0.78943   0.32074   0.33378   0.04630
C          C       0.70129   0.35669   0.32826  -0.05623
C          C       0.59164   0.34063   0.31550  -0.07190
C          C       0.57143   0.28868   0.30762  -0.09771
C          C       0.65716   0.25288   0.31386  -0.07087
C          C       0.76465   0.26878   0.32740  -0.11220
C          C       0.72360   0.41184   0.33866   0.59740
C          C       0.49819   0.37885   0.31129   0.58428
C          C       0.34179   0.57877   0.30320   0.58125
C          C       0.40283   0.62275   0.32429  -0.03500
C          C       0.35233   0.65264   0.35765  -0.10419
C          C       0.41431   0.69263   0.37692  -0.02357
C          C       0.52522   0.70309   0.36273  -0.12793
C          C       0.57608   0.67360   0.32918   0.06268
C          C       0.51379   0.63354   0.31018  -0.13412
C          C       0.36733   0.72453   0.41364   0.54490
C          C       0.69275   0.68578   0.31386   0.04650
C          C       0.77992   0.64896   0.31347  -0.06081
C          C       0.88965   0.66239   0.29891  -0.07265
C          C       0.91033   0.71193   0.28314  -0.10030
C          C       0.82484   0.74847   0.28361  -0.07119
C          C       0.71773   0.73570   0.29981  -0.11235
C          C       0.98307   0.62418   0.30182   0.58059
C          C       0.75667   0.59610   0.33062   0.60168
C          C       0.38067   0.19632   0.93824   0.54971
C          C       0.42947   0.17202   0.89743  -0.02121
C          C       0.36922   0.13551   0.87271  -0.10755
C          C       0.41949   0.11347   0.83483  -0.03394
C          C       0.52955   0.12797   0.82217  -0.13180
C          C       0.59082   0.16438   0.84674   0.06175
C          C       0.53906   0.18652   0.88426  -0.12785
C          C       0.35846   0.07385   0.80772   0.58094
C          C       0.70750   0.17995   0.83348   0.04493
C          C       0.79524   0.14393   0.82773  -0.05447
C          C       0.90490   0.15995   0.81513  -0.07282
C          C       0.92601   0.21185   0.80753  -0.09550
C          C       0.84048   0.24771   0.81385  -0.07339
C          C       0.73281   0.23190   0.82730  -0.11147
C          C       0.77326   0.08882   0.83849   0.59749
C          C      -0.00280   0.12136   0.81113   0.58645
C          C       0.15873   0.92096   0.80320   0.57879
C          C       0.09781   0.87704   0.82460  -0.03333
C          C       0.14826   0.84690   0.85786  -0.10461
C          C       0.08617   0.80682   0.87704  -0.02265
C          C       0.97506   0.79663   0.86282  -0.12794
C          C       0.92417   0.82634   0.82940   0.06245
C          C       0.98674   0.86638   0.81050  -0.13361
C          C       0.13269   0.77440   0.91364   0.54504
C          C       0.80738   0.81435   0.81395   0.04516
C          C       0.72046   0.85133   0.81331  -0.06091
C          C       0.61087   0.83806   0.79843  -0.07128
C          C       0.59000   0.78849   0.78276  -0.09854
C          C       0.67503   0.75175   0.78357  -0.07336
C          C       0.78206   0.76443   0.79994  -0.11054
C          C       0.51697   0.87608   0.80090   0.58126
C          C       0.74338   0.90419   0.83057   0.59935
C          C       0.11920   0.69649   0.06276   0.55041
C          C       0.06928   0.67221   0.10335  -0.02126
C          C       0.12915   0.63565   0.12817  -0.10793
C          C       0.07841   0.61360   0.16592  -0.03197
C          C       0.96779   0.62777   0.17813  -0.13173
C          C       0.90664   0.66399   0.15331   0.06077
C          C       0.95938   0.68660   0.11616  -0.12781
C          C       0.13868   0.57391   0.19319   0.58050
C          C       0.78943   0.67927   0.16622   0.04637
C          C       0.70129   0.64332   0.17174  -0.05647
C          C       0.59164   0.65938   0.18450  -0.07183
C          C       0.57143   0.71132   0.19238  -0.09781
C          C       0.65716   0.74713   0.18614  -0.07076
C          C       0.76465   0.73123   0.17260  -0.11213
C          C       0.72359   0.58816   0.16135   0.59756
C          C       0.49818   0.62115   0.18871   0.58446
C          C       0.34178   0.42123   0.19678   0.58087
C          C       0.40284   0.37726   0.17570  -0.03475
C          C       0.35234   0.34735   0.14234  -0.10393
C          C       0.41432   0.30736   0.12308  -0.02401
C          C       0.52523   0.29691   0.13727  -0.12767
C          C       0.57608   0.32640   0.17082   0.06263
C          C       0.51379   0.36646   0.18981  -0.13411
C          C       0.36733   0.27546   0.08636   0.54499
C          C       0.69276   0.31423   0.18614   0.04649
C          C       0.77993   0.35104   0.18653  -0.06088
C          C       0.88966   0.33761   0.20109  -0.07254
C          C       0.91033   0.28808   0.21686  -0.10036
C          C       0.82484   0.25153   0.21640  -0.07126
C          C       0.71773   0.26431   0.20019  -0.11224
C          C       0.98307   0.37582   0.19818   0.58059
C          C       0.75668   0.40390   0.16938   0.60170
C          C       0.38067   0.80368   0.56176   0.54988
C          C       0.42947   0.82799   0.60257  -0.02137
C          C       0.36923   0.86449   0.62729  -0.10741
C          C       0.41950   0.88653   0.66517  -0.03388
C          C       0.52956   0.87203   0.67783  -0.13182
C          C       0.59083   0.83562   0.65326   0.06170
C          C       0.53906   0.81348   0.61574  -0.12765
C          C       0.35847   0.92616   0.69228   0.58060
C          C       0.70751   0.82006   0.66652   0.04504
C          C       0.79525   0.85607   0.67227  -0.05445
C          C       0.90491   0.84005   0.68487  -0.07274
C          C       0.92602   0.78815   0.69247  -0.09547
C          C       0.84048   0.75229   0.68615  -0.07349
C          C       0.73281   0.76810   0.67270  -0.11151
C          C       0.77326   0.91118   0.66151   0.59681
C          C      -0.00279   0.87864   0.68887   0.58652
C          C       0.15874   0.07904   0.69680   0.57882
C          C       0.09781   0.12296   0.67541  -0.03341
C          C       0.14826   0.15310   0.64214  -0.10483
C          C       0.08617   0.19318   0.62296  -0.02252
C          C       0.97506   0.20337   0.63718  -0.12782
C          C       0.92417   0.17366   0.67060   0.06240
C          C       0.98675   0.13362   0.68950  -0.13351
C          C       0.13269   0.22560   0.58636   0.54492
C          C       0.80738   0.18565   0.68605   0.04511
C          C       0.72046   0.14867   0.68669  -0.06101
C          C       0.61087   0.16194   0.70157  -0.07134
C          C       0.59000   0.21151   0.71724  -0.09833
C          C       0.67503   0.24825   0.71643  -0.07327
C          C       0.78206   0.23557   0.70006  -0.11048
C          C       0.51697   0.12392   0.69910   0.58119
C          C       0.74338   0.09581   0.66943   0.59963
C          C       0.88080   0.69649   0.56276   0.55055
C          C       0.93072   0.67221   0.60335  -0.02146
C          C       0.87086   0.63565   0.62817  -0.10800
C          C       0.92160   0.61360   0.66592  -0.03204
C          C       0.03221   0.62777   0.67813  -0.13170
C          C       0.09337   0.66399   0.65331   0.06086
C          C       0.04063   0.68660   0.61616  -0.12767
C          C       0.86133   0.57391   0.69319   0.58092
C          C       0.21058   0.67927   0.66622   0.04624
C          C       0.29872   0.64332   0.67174  -0.05646
C          C       0.40837   0.65938   0.68450  -0.07192
C          C       0.42858   0.71133   0.69238  -0.09758
C          C       0.34285   0.74713   0.68614  -0.07084
C          C       0.23536   0.73123   0.67260  -0.11215
C          C       0.27641   0.58816   0.66134   0.59785
C          C       0.50182   0.62115   0.68871   0.58449
C          C       0.65822   0.42123   0.69680   0.58119
C          C       0.59718   0.37726   0.67571  -0.03468
C          C       0.64768   0.34736   0.64235  -0.10411
C          C       0.58570   0.30737   0.62308  -0.02323
C          C       0.47479   0.29692   0.63727  -0.12826
C          C       0.42393   0.32641   0.67082   0.06269
C          C       0.48622   0.36646   0.68982  -0.13425
C          C       0.63268   0.27547   0.58636   0.54473
C          C       0.30726   0.31423   0.68614   0.04659
C          C       0.22009   0.35104   0.68654  -0.06066
C          C       0.11036   0.33761   0.70109  -0.07313
C          C       0.08968   0.28808   0.71686  -0.10012
C          C       0.17517   0.25153   0.71639  -0.07146
C          C       0.28228   0.26431   0.70019  -0.11225
C          C       0.01694   0.37582   0.69818   0.58101
C          C       0.24334   0.40390   0.66938   0.60186
C          C       0.61935   0.80368   0.06176   0.54956
C          C       0.57054   0.82799   0.10257  -0.02121
C          C       0.63079   0.86449   0.12729  -0.10734
C          C       0.58052   0.88653   0.16517  -0.03404
C          C       0.47046   0.87203   0.17783  -0.13173
C          C       0.40919   0.83562   0.15326   0.06154
C          C       0.46095   0.81348   0.11574  -0.12762
C          C       0.64155   0.92616   0.19228   0.58062
C          C       0.29251   0.82006   0.16652   0.04483
C          C       0.20478   0.85607   0.17227  -0.05417
C          C       0.09511   0.84005   0.18487  -0.07299
C          C       0.07400   0.78815   0.19247  -0.09549
C          C       0.15953   0.75230   0.18615  -0.07350
C          C       0.26720   0.76810   0.17270  -0.11138
C          C       0.22675   0.91118   0.16151   0.59737
C          C       0.00282   0.87864   0.18887   0.58656
C          C       0.84128   0.07904   0.19680   0.57895
C          C       0.90220   0.12296   0.17540  -0.03347
C          C       0.85175   0.15310   0.14214  -0.10496
C          C       0.91384   0.19318   0.12296  -0.02266
C          C       0.02495   0.20338   0.13718  -0.12777
C          C       0.07584   0.17366   0.17060   0.06233
C          C       0.01327   0.13362   0.18950  -0.13354
C          C       0.86732   0.22560   0.08636   0.54515
C          C       0.19263   0.18565   0.18605   0.04531
C          C       0.27955   0.14867   0.18669  -0.06118
C          C       0.38914   0.16194   0.20157  -0.07136
C          C       0.41001   0.21151   0.21724  -0.09834
C          C       0.32498   0.24825   0.21643  -0.07300
C          C       0.21795   0.23557   0.20006  -0.11083
C          C       0.48304   0.12392   0.19910   0.58124
C          C       0.25663   0.09581   0.16943   0.59969
C          C       0.88081   0.30351   0.93724   0.55038
C          C       0.93073   0.32779   0.89665  -0.02135
C          C       0.87086   0.36435   0.87183  -0.10798
C          C       0.92160   0.38640   0.83408  -0.03186
C          C       0.03222   0.37224   0.82187  -0.13164
C          C       0.09337   0.33601   0.84669   0.06072
C          C       0.04063   0.31341   0.88384  -0.12763
C          C       0.86133   0.42610   0.80681   0.58045
C          C       0.21058   0.32074   0.83378   0.04621
C          C       0.29872   0.35669   0.82826  -0.05643
C          C       0.40837   0.34063   0.81550  -0.07174
C          C       0.42859   0.28868   0.80762  -0.09772
C          C       0.34286   0.25288   0.81386  -0.07090
C          C       0.23536   0.26878   0.82740  -0.11205
C          C       0.27642   0.41185   0.83865   0.59741
C          C       0.50183   0.37885   0.81129   0.58425
C          C       0.65824   0.57877   0.80322   0.58109
C          C       0.59717   0.62275   0.82430  -0.03462
C          C       0.64767   0.65265   0.85766  -0.10397
C          C       0.58569   0.69264   0.87692  -0.02359
C          C       0.47478   0.70309   0.86273  -0.12808
C          C       0.42393   0.67360   0.82918   0.06276
C          C       0.48622   0.63354   0.81019  -0.13434
C          C       0.63268   0.72454   0.91364   0.54485
C          C       0.30725   0.68578   0.81386   0.04646
C          C       0.22008   0.64896   0.81347  -0.06075
C          C       0.11035   0.66239   0.79891  -0.07287
C          C       0.08968   0.71193   0.78314  -0.10021
C          C       0.17517   0.74847   0.78360  -0.07133
C          C       0.28228   0.73570   0.79981  -0.11206
C          C       0.01694   0.62418   0.80182   0.58095
C          C       0.24334   0.59610   0.83062   0.60185
C          C       0.61934   0.19632   0.43824   0.54971
C          C       0.57054   0.17202   0.39743  -0.02130
C          C       0.63078   0.13551   0.37271  -0.10745
C          C       0.58051   0.11347   0.33483  -0.03399
C          C       0.47046   0.12797   0.32217  -0.13176
C          C       0.40918   0.16438   0.34674   0.06153
C          C       0.46095   0.18652   0.38426  -0.12754
C          C       0.64154   0.07384   0.30772   0.58095
C          C       0.29250   0.17995   0.33348   0.04510
C          C       0.20476   0.14394   0.32773  -0.05458
C          C       0.09510   0.15996   0.31513  -0.07267
C          C       0.07399   0.21185   0.30753  -0.09572
C          C       0.15953   0.24771   0.31385  -0.07331
C          C       0.26720   0.23190   0.32730  -0.11154
C          C       0.22675   0.08882   0.33849   0.59732
C          C       0.00280   0.12136   0.31113   0.58655
C          C       0.84127   0.92096   0.30320   0.57909
C          C       0.90220   0.87704   0.32459  -0.03334
C          C       0.85175   0.84690   0.35786  -0.10494
C          C       0.91384   0.80682   0.37704  -0.02267
C          C       0.02495   0.79663   0.36282  -0.12768
C          C       0.07584   0.82634   0.32940   0.06238
C          C       0.01327   0.86638   0.31050  -0.13368
C          C       0.86732   0.77440   0.41364   0.54514
C          C       0.19263   0.81435   0.31395   0.04529
C          C       0.27955   0.85133   0.31331  -0.06105
C          C       0.38914   0.83806   0.29843  -0.07131
C          C       0.41001   0.78849   0.28276  -0.09833
C          C       0.32498   0.75175   0.28357  -0.07319
C          C       0.21795   0.76444   0.29994  -0.11077
C          C       0.48304   0.87608   0.30090   0.58114
C          C       0.25664   0.90419   0.33057   0.59939
O          O       0.06970   0.26522   0.45465  -0.54211
O          O       0.21081   0.32278   0.45456  -0.53900
O          O       0.24731   0.42883   0.30700  -0.55849
O          O       0.07971   0.45709   0.28404  -0.59947
O          O       0.70846   0.42606   0.37983  -0.52125
O          O       0.76053   0.44214   0.30901  -0.62383
O          O       0.39585   0.35825   0.30480  -0.48579
O          O       0.51513   0.42531   0.31373  -0.53239
O          O       0.40019   0.54476   0.28363  -0.60494
O          O       0.23350   0.57573   0.30491  -0.55520
O          O       0.26787   0.71462   0.42981  -0.53307
O          O       0.42826   0.76043   0.42946  -0.53196
O          O       0.08521   0.64382   0.29337  -0.48193
O          O       0.96570   0.57890   0.31142  -0.52841
O          O       0.76587   0.58840   0.37324  -0.52468
O          O       0.72359   0.56097   0.30429  -0.63267
O          O       0.43398   0.23278   0.95680  -0.54281
O          O       0.28568   0.17934   0.95451  -0.53919
O          O       0.24998   0.07096   0.80892  -0.55990
O          O       0.41688   0.04321   0.78422  -0.60008
O          O       0.78823   0.07531   0.87981  -0.52080
O          O       0.73633   0.05803   0.80916  -0.62260
O          O       0.10016   0.14134   0.80486  -0.48430
O          O       0.97798   0.07506   0.81365  -0.53297
O          O       0.09953   0.95487   0.78376  -0.60407
O          O       0.26713   0.92406   0.80444  -0.55331
O          O       0.23335   0.78288   0.92941  -0.53177
O          O       0.06956   0.73947   0.92986  -0.53480
O          O       0.41572   0.85622   0.79127  -0.48343
O          O       0.53228   0.92132   0.81121  -0.53015
O          O       0.73155   0.91197   0.87306  -0.52301
O          O       0.77764   0.93922   0.80438  -0.62953
O          O       0.06969   0.73478   0.04535  -0.54182
O          O       0.21080   0.67723   0.04544  -0.53926
O          O       0.24730   0.57117   0.19300  -0.55841
O          O       0.07970   0.54291   0.21596  -0.59966
O          O       0.70844   0.57394   0.12018  -0.52121
O          O       0.76053   0.55787   0.19100  -0.62398
O          O       0.39585   0.64175   0.19520  -0.48564
O          O       0.51513   0.57469   0.18627  -0.53270
O          O       0.40016   0.45522   0.21637  -0.60467
O          O       0.23348   0.42428   0.19506  -0.55515
O          O       0.26787   0.28538   0.07019  -0.53290
O          O       0.42826   0.23957   0.07054  -0.53226
O          O       0.08521   0.35619   0.20663  -0.48228
O          O       0.96570   0.42111   0.18858  -0.52810
O          O       0.76587   0.41160   0.12675  -0.52477
O          O       0.72360   0.43903   0.19571  -0.63257
O          O       0.43398   0.76722   0.54321  -0.54299
O          O       0.28568   0.82067   0.54549  -0.53917
O          O       0.24999   0.92905   0.69108  -0.55997
O          O       0.41689   0.95679   0.71578  -0.59968
O          O       0.78824   0.92470   0.62019  -0.52061
O          O       0.73633   0.94197   0.69084  -0.62229
O          O       0.10018   0.85866   0.69514  -0.48473
O          O       0.97798   0.92494   0.68635  -0.53276
O          O       0.09955   0.04513   0.71624  -0.60411
O          O       0.26714   0.07595   0.69556  -0.55344
O          O       0.23335   0.21712   0.57059  -0.53196
O          O       0.06956   0.26053   0.57014  -0.53448
O          O       0.41572   0.14378   0.70873  -0.48316
O          O       0.53228   0.07868   0.68879  -0.53035
O          O       0.73155   0.08803   0.62694  -0.52299
O          O       0.77763   0.06078   0.69562  -0.62983
O          O       0.93031   0.73478   0.54535  -0.54148
O          O       0.78921   0.67722   0.54544  -0.53970
O          O       0.75270   0.57117   0.69300  -0.55907
O          O       0.92031   0.54291   0.71596  -0.59947
O          O       0.29155   0.57394   0.62017  -0.52126
O          O       0.23948   0.55787   0.69099  -0.62428
O          O       0.60416   0.64175   0.69520  -0.48538
O          O       0.48489   0.57469   0.68627  -0.53269
O          O       0.59983   0.45524   0.71637  -0.60508
O          O       0.76652   0.42428   0.69509  -0.55481
O          O       0.73214   0.28539   0.57019  -0.53241
O          O       0.57175   0.23957   0.57054  -0.53261
O          O       0.91481   0.35618   0.70663  -0.48254
O          O       0.03431   0.42111   0.68858  -0.52817
O          O       0.23414   0.41160   0.62676  -0.52487
O          O       0.27642   0.43903   0.69571  -0.63244
O          O       0.56603   0.76722   0.04320  -0.54327
O          O       0.71433   0.82067   0.04549  -0.53856
O          O       0.75003   0.92904   0.19108  -0.55927
O          O       0.58313   0.95679   0.21578  -0.60009
O          O       0.21178   0.92470   0.12019  -0.52096
O          O       0.26368   0.94198   0.19084  -0.62227
O          O       0.89985   0.85866   0.19514  -0.48477
O          O       0.02203   0.92494   0.18635  -0.53266
O          O       0.90048   0.04513   0.21624  -0.60398
O          O       0.73288   0.07594   0.19556  -0.55380
O          O       0.76666   0.21712   0.07059  -0.53237
O          O       0.93045   0.26053   0.07014  -0.53429
O          O       0.58430   0.14378   0.20873  -0.48306
O          O       0.46773   0.07868   0.18879  -0.53029
O          O       0.26846   0.08803   0.12695  -0.52292
O          O       0.22238   0.06078   0.19562  -0.62998
O          O       0.93032   0.26522   0.95465  -0.54168
O          O       0.78921   0.32277   0.95456  -0.53947
O          O       0.75271   0.42883   0.80700  -0.55889
O          O       0.92031   0.45709   0.78404  -0.59910
O          O       0.29157   0.42607   0.87982  -0.52112
O          O       0.23948   0.44214   0.80900  -0.62399
O          O       0.60416   0.35825   0.80480  -0.48545
O          O       0.48489   0.42531   0.81373  -0.53235
O          O       0.59985   0.54478   0.78363  -0.60532
O          O       0.76653   0.57572   0.80494  -0.55473
O          O       0.73214   0.71462   0.92981  -0.53250
O          O       0.57175   0.76044   0.92946  -0.53253
O          O       0.91480   0.64381   0.79337  -0.48247
O          O       0.03431   0.57890   0.81142  -0.52840
O          O       0.23414   0.58840   0.87325  -0.52484
O          O       0.27641   0.56097   0.80429  -0.63255
O          O       0.56603   0.23278   0.45679  -0.54307
O          O       0.71433   0.17934   0.45451  -0.53887
O          O       0.75002   0.07096   0.30892  -0.55963
O          O       0.58312   0.04321   0.28422  -0.60033
O          O       0.21178   0.07531   0.37981  -0.52080
O          O       0.26369   0.05803   0.30916  -0.62237
O          O       0.89983   0.14134   0.30486  -0.48469
O          O       0.02203   0.07506   0.31365  -0.53299
O          O       0.90046   0.95488   0.28376  -0.60374
O          O       0.73287   0.92406   0.30444  -0.55405
O          O       0.76666   0.78288   0.42941  -0.53241
O          O       0.93045   0.73947   0.42986  -0.53424
O          O       0.58429   0.85622   0.29127  -0.48317
O          O       0.46773   0.92132   0.31121  -0.53004
O          O       0.26847   0.91198   0.37306  -0.52282
O          O       0.22238   0.93922   0.30438  -0.62989

