data_crystal

_audit_creation_method 'AiiDA-DDEC plugin'

_cell_length_a        21.44785
_cell_length_b        21.63615
_cell_length_c        36.42242

_cell_angle_alpha     90.00000
_cell_angle_beta     89.99955
_cell_angle_gamma     89.99865

_symmetry_space_group_name_Hall 'P 1'
_symmetry_space_group_name_H-M  'P 1'

loop_
_symmetry_equiv_pos_as_xyz
 'x,y,z'

loop_
_atom_site_label
_atom_site_type_symbol
_atom_site_fract_x
_atom_site_fract_y
_atom_site_fract_z
_atom_site_charge
In         In      0.07358   0.83842   0.05098   0.77329
In         In      0.08581   0.69017   0.10492   0.78745
In         In      0.92482   0.74366   0.05283   0.78551
In         In      0.98828   0.84243   0.14088   0.78694
In         In      0.08057   0.54979   0.16359   0.77296
In         In      0.92910   0.58474   0.11396   0.77848
In         In      0.98983   0.68436   0.20263   0.78305
In         In      0.78407   0.63970   0.06806   0.77277
In         In      0.82955   0.73490   0.15070   0.78237
In         In      0.89596   0.82492   0.22951   0.77854
In         In      0.42644   0.16159   0.55097   0.77334
In         In      0.41418   0.30981   0.60493   0.78730
In         In      0.57521   0.25634   0.55282   0.78551
In         In      0.51175   0.15757   0.64088   0.78704
In         In      0.41942   0.45021   0.66360   0.77304
In         In      0.57088   0.41525   0.61394   0.77840
In         In      0.51016   0.31565   0.70262   0.78287
In         In      0.71594   0.36030   0.56807   0.77291
In         In      0.67047   0.26511   0.65071   0.78287
In         In      0.60401   0.17509   0.72953   0.77844
In         In      0.92642   0.33844   0.44901   0.77338
In         In      0.91418   0.19019   0.39506   0.78724
In         In      0.07516   0.24365   0.44718   0.78556
In         In      0.01173   0.34246   0.35912   0.78705
In         In      0.91944   0.04977   0.33640   0.77295
In         In      0.07088   0.08472   0.38606   0.77834
In         In      0.01016   0.18437   0.29738   0.78264
In         In      0.21593   0.13970   0.43193   0.77293
In         In      0.17044   0.23488   0.34929   0.78265
In         In      0.10402   0.32488   0.27046   0.77836
In         In      0.57355   0.66156   0.94902   0.77344
In         In      0.58581   0.80982   0.89508   0.78773
In         In      0.42480   0.75635   0.94717   0.78545
In         In      0.48824   0.65755   0.85913   0.78712
In         In      0.58057   0.95022   0.83642   0.77286
In         In      0.42909   0.91528   0.88602   0.77851
In         In      0.48985   0.81562   0.79738   0.78300
In         In      0.28407   0.86031   0.93193   0.77293
In         In      0.32952   0.76512   0.84930   0.78222
In         In      0.39596   0.67511   0.77048   0.77867
In         In      0.90098   0.43946   0.82420   0.78286
In         In      0.89463   0.30712   0.88886   0.77897
In         In      0.04741   0.41887   0.88247   0.78420
In         In      0.00502   0.30465   0.79649   0.78704
In         In      0.90422   0.16706   0.94933   0.76360
In         In      0.04646   0.26825   0.95237   0.78571
In         In      0.00386   0.15671   0.86483   0.78143
In         In      0.18174   0.37663   0.94243   0.77450
In         In      0.15850   0.27051   0.86023   0.78362
In         In      0.11300   0.16637   0.78301   0.78053
In         In      0.59901   0.56055   0.32419   0.78283
In         In      0.60536   0.69289   0.38885   0.77907
In         In      0.45261   0.58112   0.38247   0.78440
In         In      0.49497   0.69534   0.29647   0.78717
In         In      0.59576   0.83294   0.44935   0.76362
In         In      0.45355   0.73175   0.45236   0.78567
In         In      0.49618   0.84330   0.36482   0.78142
In         In      0.31825   0.62336   0.44241   0.77447
In         In      0.34153   0.72949   0.36023   0.78327
In         In      0.38698   0.83363   0.28301   0.78064
In         In      0.09900   0.93948   0.67580   0.78297
In         In      0.10535   0.80711   0.61115   0.77932
In         In      0.95259   0.91890   0.61752   0.78426
In         In      0.99499   0.80464   0.70352   0.78735
In         In      0.09576   0.66704   0.55066   0.76367
In         In      0.95352   0.76821   0.54765   0.78556
In         In      0.99613   0.65667   0.63518   0.78155
In         In      0.81825   0.87668   0.55759   0.77419
In         In      0.84151   0.77055   0.63978   0.78310
In         In      0.88699   0.66639   0.71700   0.78068
In         In      0.40099   0.06053   0.17580   0.78299
In         In      0.39465   0.19288   0.11114   0.77903
In         In      0.54740   0.08109   0.11753   0.78447
In         In      0.50500   0.19536   0.20351   0.78745
In         In      0.40423   0.33298   0.05068   0.76353
In         In      0.54645   0.23178   0.04763   0.78577
In         In      0.50383   0.34333   0.13518   0.78141
In         In      0.68171   0.12332   0.05756   0.77461
In         In      0.65846   0.22946   0.13976   0.78352
In         In      0.61302   0.33361   0.21699   0.78068
H          H       0.19773   0.81479   0.00150   0.10756
H          H       0.04711   0.99062   0.01877   0.12591
H          H       0.04936   0.07835   0.97376   0.08649
H          H       0.12510   0.08055   0.92304   0.11045
H          H       0.20162   0.99452   0.91400   0.13049
H          H       0.06771   0.45812   0.23296   0.10637
H          H       0.21416   0.28268   0.20431   0.13014
H          H       0.28422   0.29226   0.14967   0.09813
H          H       0.28008   0.38336   0.10930   0.09527
H          H       0.20786   0.47174   0.12277   0.13327
H          H       0.30226   0.18521   0.50150   0.10772
H          H       0.45289   0.00939   0.51877   0.12568
H          H       0.45064   0.92166   0.47375   0.08640
H          H       0.37488   0.91945   0.42304   0.11051
H          H       0.29836   0.00548   0.41401   0.13053
H          H       0.43228   0.54188   0.73296   0.10613
H          H       0.28584   0.71733   0.70432   0.13016
H          H       0.21578   0.70774   0.64967   0.09841
H          H       0.21992   0.61664   0.60931   0.09554
H          H       0.29214   0.52826   0.62278   0.13322
H          H       0.80227   0.31479   0.49851   0.10789
H          H       0.95288   0.49061   0.48123   0.12574
H          H       0.95063   0.57835   0.52624   0.08641
H          H       0.87489   0.58055   0.57696   0.11045
H          H       0.79838   0.49453   0.58600   0.13063
H          H       0.93227   0.95813   0.26703   0.10618
H          H       0.78584   0.78268   0.29568   0.13015
H          H       0.71578   0.79226   0.35033   0.09834
H          H       0.71992   0.88336   0.39069   0.09549
H          H       0.79214   0.97174   0.37722   0.13143
H          H       0.69773   0.68521   0.99850   0.10760
H          H       0.54710   0.50939   0.98123   0.12594
H          H       0.54935   0.42166   0.02625   0.08646
H          H       0.62511   0.41945   0.07695   0.11043
H          H       0.70163   0.50548   0.08599   0.13051
H          H       0.56772   0.04186   0.76704   0.10643
H          H       0.71415   0.21732   0.79568   0.13029
H          H       0.78421   0.20774   0.85033   0.09827
H          H       0.78008   0.11664   0.89069   0.09520
H          H       0.70786   0.02826   0.87722   0.13420
H          H       0.92896   0.53883   0.75936   0.10631
H          H       0.75226   0.49629   0.84647   0.13065
H          H       0.66189   0.56962   0.84818   0.10683
H          H       0.65761   0.65982   0.80683   0.11018
H          H       0.74486   0.68303   0.76350   0.13113
H          H       0.76319   0.17101   0.98720   0.10755
H          H       0.94821   0.02808   0.98681   0.12080
H          H       0.94951   0.93945   0.03115   0.08070
H          H       0.86237   0.92093   0.07357   0.11090
H          H       0.76887   0.99032   0.07406   0.13175
H          H       0.57103   0.46118   0.25936   0.10648
H          H       0.74774   0.50371   0.34647   0.13079
H          H       0.83810   0.43038   0.34818   0.10661
H          H       0.84238   0.34017   0.30682   0.10975
H          H       0.75513   0.31697   0.26349   0.13097
H          H       0.73680   0.82899   0.48722   0.10729
H          H       0.55178   0.97193   0.48681   0.12107
H          H       0.55047   0.06056   0.53115   0.08088
H          H       0.63762   0.07909   0.57356   0.11088
H          H       0.73111   0.00969   0.57406   0.13141
H          H       0.07104   0.03882   0.74063   0.10640
H          H       0.24774   0.99629   0.65352   0.13081
H          H       0.33811   0.06961   0.65182   0.10681
H          H       0.34238   0.15982   0.69317   0.10982
H          H       0.25513   0.18302   0.73650   0.13094
H          H       0.23680   0.67101   0.51279   0.10735
H          H       0.05179   0.52808   0.51319   0.12095
H          H       0.05048   0.43945   0.46884   0.08098
H          H       0.13763   0.42092   0.42643   0.11098
H          H       0.23112   0.49031   0.42594   0.13171
H          H       0.42896   0.96119   0.24064   0.10623
H          H       0.25225   0.00371   0.15352   0.13071
H          H       0.16189   0.93038   0.15182   0.10679
H          H       0.15762   0.84017   0.19317   0.11003
H          H       0.24487   0.81697   0.23650   0.13093
H          H       0.26320   0.32900   0.01279   0.10757
H          H       0.44821   0.47193   0.01319   0.12078
H          H       0.44952   0.56055   0.96884   0.08073
H          H       0.36237   0.57908   0.92643   0.11109
H          H       0.26888   0.50969   0.92593   0.13187
C          C       0.17862   0.85878   0.99252   0.17546
C          C       0.12092   0.94189   0.99001   0.13671
C          C       0.07903   0.99037   0.99555  -0.15690
C          C       0.08114   0.03949   0.97049  -0.06003
C          C       0.12465   0.04077   0.94132  -0.08438
C          C       0.16729   0.99314   0.93600  -0.14655
C          C       0.16494   0.94341   0.96075   0.15023
C          C       0.10350   0.43772   0.21568   0.17177
C          C       0.17237   0.37270   0.19414   0.13581
C          C       0.21271   0.32345   0.18682  -0.14459
C          C       0.25143   0.32910   0.15607  -0.06118
C          C       0.24940   0.38158   0.13306  -0.08076
C          C       0.20922   0.43086   0.14018  -0.14619
C          C       0.17062   0.42578   0.17109   0.14125
C          C       0.32136   0.14122   0.49252   0.17538
C          C       0.37907   0.05812   0.49001   0.13663
C          C       0.42096   0.00964   0.49555  -0.15656
C          C       0.41885   0.96051   0.47049  -0.06050
C          C       0.37533   0.95923   0.44132  -0.08471
C          C       0.33270   0.00686   0.43600  -0.14614
C          C       0.33504   0.05659   0.46075   0.15018
C          C       0.39649   0.56228   0.71569   0.17153
C          C       0.32762   0.62731   0.69415   0.13591
C          C       0.28729   0.67656   0.68683  -0.14451
C          C       0.24857   0.67090   0.65607  -0.06133
C          C       0.25060   0.61842   0.63306  -0.08061
C          C       0.29079   0.56914   0.64019  -0.14619
C          C       0.32938   0.57422   0.67110   0.14129
C          C       0.82137   0.35878   0.50748   0.17534
C          C       0.87906   0.44189   0.50999   0.13662
C          C       0.92095   0.49036   0.50445  -0.15669
C          C       0.91885   0.53949   0.52950  -0.06032
C          C       0.87534   0.54077   0.55868  -0.08457
C          C       0.83270   0.49314   0.56401  -0.14674
C          C       0.83505   0.44341   0.53925   0.15021
C          C       0.89648   0.93773   0.28431   0.17165
C          C       0.82762   0.87270   0.30584   0.13589
C          C       0.78728   0.82345   0.31317  -0.14454
C          C       0.74858   0.82910   0.34392  -0.06141
C          C       0.75060   0.88158   0.36694  -0.08051
C          C       0.79078   0.93087   0.35981  -0.14478
C          C       0.82937   0.92578   0.32890   0.14141
C          C       0.67863   0.64122   0.00748   0.17538
C          C       0.62093   0.55811   0.00999   0.13661
C          C       0.57904   0.50964   0.00446  -0.15679
C          C       0.58115   0.46051   0.02951  -0.06012
C          C       0.62466   0.45923   0.05868  -0.08473
C          C       0.66730   0.50686   0.06400  -0.14671
C          C       0.66496   0.55659   0.03925   0.15029
C          C       0.60351   0.06226   0.78432   0.17191
C          C       0.67237   0.12730   0.80585   0.13617
C          C       0.71271   0.17655   0.81317  -0.14447
C          C       0.75142   0.17090   0.84393  -0.06159
C          C       0.74940   0.11842   0.86694  -0.08075
C          C       0.70922   0.06913   0.85981  -0.14731
C          C       0.67062   0.07421   0.82890   0.14078
C          C       0.88403   0.55182   0.77072   0.16983
C          C       0.79917   0.54950   0.80399   0.13259
C          C       0.75065   0.53665   0.82865  -0.13946
C          C       0.70028   0.57771   0.82925  -0.08456
C          C       0.69806   0.62949   0.80588  -0.07250
C          C       0.74662   0.64281   0.78139  -0.13901
C          C       0.79731   0.60220   0.78081   0.12985
C          C       0.78713   0.13043   0.99771   0.17572
C          C       0.85792   0.05931   0.00637   0.13470
C          C       0.90982   0.02054   0.00581  -0.15217
C          C       0.91007   0.97100   0.03064  -0.05555
C          C       0.85989   0.96022   0.05497  -0.08507
C          C       0.80774  -0.00154   0.05546  -0.14517
C          C       0.80721   0.04832   0.03070   0.14796
C          C       0.61597   0.44818   0.27072   0.17059
C          C       0.70083   0.45050   0.30399   0.13207
C          C       0.74935   0.46335   0.32864  -0.13930
C          C       0.79972   0.42229   0.32925  -0.08465
C          C       0.80193   0.37051   0.30587  -0.07255
C          C       0.75337   0.35719   0.28138  -0.13905
C          C       0.70268   0.39780   0.28081   0.12999
C          C       0.71286   0.86957   0.49772   0.17538
C          C       0.64207   0.94070   0.50637   0.13462
C          C       0.59017   0.97947   0.50581  -0.15230
C          C       0.58992   0.02900   0.53064  -0.05504
C          C       0.64010   0.03979   0.55497  -0.08505
C          C       0.69225   0.00155   0.55546  -0.14522
C          C       0.69278   0.95169   0.53070   0.14805
C          C       0.11597   0.05182   0.72927   0.17015
C          C       0.20083   0.04950   0.69600   0.13204
C          C       0.24935   0.03665   0.67135  -0.13917
C          C       0.29972   0.07771   0.67075  -0.08469
C          C       0.30193   0.12949   0.69412  -0.07261
C          C       0.25337   0.14281   0.71861  -0.13892
C          C       0.20268   0.10220   0.71919   0.12998
C          C       0.21286   0.63043   0.50228   0.17559
C          C       0.14208   0.55931   0.49363   0.13485
C          C       0.09018   0.52054   0.49419  -0.15234
C          C       0.08993   0.47100   0.46936  -0.05548
C          C       0.14011   0.46022   0.44503  -0.08507
C          C       0.19226   0.49845   0.44454  -0.14542
C          C       0.19279   0.54832   0.46929   0.14804
C          C       0.38402   0.94819   0.22928   0.17004
C          C       0.29916   0.95051   0.19601   0.13220
C          C       0.25064   0.96335   0.17135  -0.13895
C          C       0.20027   0.92229   0.17075  -0.08456
C          C       0.19806   0.87051   0.19412  -0.07255
C          C       0.24663   0.85719   0.21861  -0.13910
C          C       0.29731   0.89780   0.21919   0.13001
C          C       0.28714   0.36958   0.00228   0.17520
C          C       0.35792   0.44070   0.99363   0.13430
C          C       0.40982   0.47947   0.99419  -0.15244
C          C       0.41007   0.52900   0.96936  -0.05543
C          C       0.35989   0.53979   0.94503  -0.08512
C          C       0.30774   0.50155   0.94454  -0.14497
C          C       0.30721   0.45169   0.96929   0.14821
S          S       0.14789   0.75550   0.06425  -0.47345
S          S       0.98260   0.81337   0.01225  -0.44137
S          S       0.04657   0.91160   0.09986  -0.47408
S          S       0.15277   0.60341   0.12290  -0.45824
S          S       0.99145   0.65148   0.07004  -0.56390
S          S       0.05596   0.75257   0.16133  -0.58396
S          S       0.83064   0.70787   0.02136  -0.45738
S          S       0.89070   0.80574   0.10841  -0.58296
S          S       0.95851   0.90103   0.19562  -0.47720
S          S       0.99380   0.49694   0.13224  -0.43164
S          S       0.05232   0.59612   0.22285  -0.46010
S          S       0.83811   0.54306   0.08178  -0.45152
S          S       0.89385   0.64276   0.17062  -0.56760
S          S       0.95636   0.74063   0.25746  -0.43725
S          S       0.73649   0.69703   0.11902  -0.43498
S          S       0.79493   0.79233   0.20496  -0.44955
S          S       0.35212   0.24450   0.56425  -0.47319
S          S       0.51742   0.18662   0.51224  -0.44133
S          S       0.45345   0.08843   0.59985  -0.47404
S          S       0.34724   0.39659   0.62290  -0.45786
S          S       0.50854   0.34849   0.57003  -0.56370
S          S       0.44404   0.24741   0.66134  -0.58360
S          S       0.66938   0.29215   0.52136  -0.45749
S          S       0.60932   0.19428   0.60841  -0.58335
S          S       0.54150   0.09897   0.69562  -0.47721
S          S       0.50618   0.50305   0.63224  -0.43164
S          S       0.44767   0.40388   0.72285  -0.46003
S          S       0.66189   0.45694   0.58177  -0.45144
S          S       0.60614   0.35725   0.67061  -0.56792
S          S       0.54362   0.25939   0.75746  -0.43704
S          S       0.76352   0.30297   0.61903  -0.43560
S          S       0.70505   0.20765   0.70498  -0.44997
S          S       0.85213   0.25551   0.43574  -0.47323
S          S       0.01739   0.31337   0.48776  -0.44155
S          S       0.95342   0.41161   0.40014  -0.47404
S          S       0.84724   0.10342   0.37709  -0.45780
S          S       0.00853   0.15148   0.42996  -0.56385
S          S       0.94402   0.25261   0.33866  -0.58351
S          S       0.16936   0.20785   0.47863  -0.45754
S          S       0.10928   0.30572   0.39159  -0.58328
S          S       0.04151   0.40102   0.30437  -0.47718
S          S       0.00619   0.99693   0.36776  -0.43174
S          S       0.94768   0.09613   0.27715  -0.45980
S          S       0.16189   0.04305   0.41823  -0.45155
S          S       0.10613   0.14275   0.32939  -0.56770
S          S       0.04361   0.24060   0.24254  -0.43686
S          S       0.26351   0.19704   0.38097  -0.43535
S          S       0.20505   0.29234   0.29504  -0.44975
S          S       0.64786   0.74449   0.93575  -0.47381
S          S       0.48259   0.68664   0.98775  -0.44143
S          S       0.54655   0.58839   0.90014  -0.47412
S          S       0.65277   0.89657   0.87710  -0.45854
S          S       0.49143   0.84853   0.92995  -0.56403
S          S       0.55595   0.74740   0.83868  -0.58402
S          S       0.33062   0.79215   0.97864  -0.45760
S          S       0.39067   0.69427   0.89159  -0.58296
S          S       0.45849   0.59897   0.80438  -0.47743
S          S       0.49379   0.00307   0.86775  -0.43148
S          S       0.55232   0.90388   0.77717  -0.45973
S          S       0.33810   0.95695   0.91822  -0.45147
S          S       0.39385   0.85723   0.82937  -0.56754
S          S       0.45639   0.75937   0.74254  -0.43697
S          S       0.23647   0.80298   0.88098  -0.43493
S          S       0.29493   0.70765   0.79504  -0.44957
S          S       0.82510   0.38446   0.86151  -0.47728
S          S       0.98327   0.49999   0.85491  -0.43961
S          S       0.94367   0.38844   0.76918  -0.44614
S          S       0.82823   0.24340   0.92837  -0.47928
S          S       0.98071   0.35554   0.92632  -0.56636
S          S       0.93495   0.23928   0.83708  -0.57151
S          S       0.13191   0.46862   0.91702  -0.45169
S          S       0.09389   0.35499   0.83113  -0.56464
S          S       0.04831   0.23939   0.74780  -0.43448
S          S       0.98734   0.19798   0.99186  -0.45121
S          S       0.94253   0.08966   0.90540  -0.44242
S          S       0.12973   0.31394   0.98926  -0.46687
S          S       0.09298   0.20247   0.90163  -0.58635
S          S       0.04949   0.09124   0.81719  -0.46507
S          S       0.24173   0.31796   0.89634  -0.43474
S          S       0.20674   0.20864   0.81157  -0.46220
S          S       0.67489   0.61554   0.36151  -0.47771
S          S       0.51674   0.50000   0.35491  -0.43967
S          S       0.55633   0.61156   0.26917  -0.44630
S          S       0.67175   0.75660   0.42837  -0.47973
S          S       0.51931   0.64446   0.42632  -0.56634
S          S       0.56505   0.76072   0.33706  -0.57168
S          S       0.36810   0.53138   0.41702  -0.45179
S          S       0.40612   0.64500   0.33114  -0.56469
S          S       0.45168   0.76062   0.24779  -0.43463
S          S       0.51264   0.80201   0.49186  -0.45101
S          S       0.55749   0.91033   0.40540  -0.44253
S          S       0.37026   0.68605   0.48923  -0.46667
S          S       0.40705   0.79754   0.40162  -0.58601
S          S       0.45051   0.90875   0.31718  -0.46503
S          S       0.25827   0.68206   0.39633  -0.43425
S          S       0.29326   0.79136   0.31158  -0.46188
S          S       0.17488   0.88446   0.63849  -0.47775
S          S       0.01673   0.00002   0.64507  -0.43964
S          S       0.05634   0.88843   0.73081  -0.44664
S          S       0.17174   0.74339   0.57163  -0.47965
S          S       0.01927   0.85551   0.57368  -0.56647
S          S       0.06504   0.73926   0.66293  -0.57198
S          S       0.86809   0.96866   0.58298  -0.45164
S          S       0.90613   0.85501   0.66887  -0.56459
S          S       0.95168   0.73941   0.75221  -0.43488
S          S       0.01263   0.69797   0.50814  -0.45093
S          S       0.05747   0.58964   0.59460  -0.44265
S          S       0.87025   0.81395   0.51077  -0.46644
S          S       0.90700   0.70245   0.59839  -0.58577
S          S       0.95050   0.59124   0.68283  -0.46530
S          S       0.75826   0.81796   0.60366  -0.43419
S          S       0.79326   0.70866   0.68843  -0.46173
S          S       0.32511   0.11555   0.13849  -0.47746
S          S       0.48326  -0.00002   0.14508  -0.43985
S          S       0.44366   0.11157   0.23081  -0.44641
S          S       0.32825   0.25660   0.07163  -0.47932
S          S       0.48072   0.14446   0.07368  -0.56637
S          S       0.43494   0.26074   0.16292  -0.57165
S          S       0.63190   0.03135   0.08299  -0.45191
S          S       0.59386   0.14499   0.16887  -0.56485
S          S       0.54831   0.26061   0.25220  -0.43476
S          S       0.48733   0.30203   0.00815  -0.45093
S          S       0.44251   0.41038   0.09461  -0.44253
S          S       0.62972   0.18607   0.01075  -0.46674
S          S       0.59296   0.29755   0.09838  -0.58611
S          S       0.54949   0.40875   0.18283  -0.46506
S          S       0.74169   0.18202   0.10364  -0.43455
S          S       0.70674   0.29133   0.18841  -0.46222
N          N       0.13108   0.88735   0.00955  -0.31084
N          N       0.20077   0.89029   0.96323  -0.30289
N          N       0.12664   0.46601   0.18556  -0.30063
N          N       0.12914   0.38205   0.22217  -0.30208
N          N       0.36890   0.11265   0.50955  -0.31091
N          N       0.29919   0.10971   0.46324  -0.30253
N          N       0.37337   0.53400   0.68557  -0.30051
N          N       0.37087   0.61795   0.72218  -0.30240
N          N       0.86891   0.38735   0.49045  -0.31075
N          N       0.79922   0.39029   0.53677  -0.30257
N          N       0.87335   0.96601   0.31442  -0.30072
N          N       0.87084   0.88207   0.27781  -0.30209
N          N       0.63110   0.61265   0.99045  -0.31062
N          N       0.70081   0.60971   0.03676  -0.30272
N          N       0.62664   0.03398   0.81443  -0.30075
N          N       0.62913   0.11794   0.77782  -0.30195
N          N       0.85457   0.51849   0.79682  -0.29860
N          N       0.85201   0.60227   0.76006  -0.30001
N          N       0.84336   0.11190   0.98589  -0.30857
N          N       0.76308   0.09379   0.02436  -0.30386
N          N       0.64541   0.48151   0.29682  -0.29827
N          N       0.64798   0.39773   0.26006  -0.30036
N          N       0.65664   0.88811   0.48589  -0.30788
N          N       0.73689   0.90621   0.52437  -0.30409
N          N       0.14542   0.01849   0.70317  -0.29806
N          N       0.14798   0.10226   0.73994  -0.30032
N          N       0.15663   0.61189   0.51411  -0.30834
N          N       0.23691   0.59379   0.47563  -0.30414
N          N       0.35457   0.98152   0.20318  -0.29828
N          N       0.35201   0.89774   0.23994  -0.30036
N          N       0.34336   0.38812   0.01412  -0.30823
N          N       0.26310   0.40621   0.97563  -0.30379

