data_crystal

_audit_creation_method 'AiiDA-DDEC plugin'

_cell_length_a        18.28108
_cell_length_b        18.38190
_cell_length_c        29.99968

_cell_angle_alpha     84.97108
_cell_angle_beta     79.70144
_cell_angle_gamma     60.15058

_symmetry_space_group_name_Hall 'P 1'
_symmetry_space_group_name_H-M  'P 1'

loop_
_symmetry_equiv_pos_as_xyz
 'x,y,z'

loop_
_atom_site_label
_atom_site_type_symbol
_atom_site_fract_x
_atom_site_fract_y
_atom_site_fract_z
_atom_site_charge
Sr         Sr      0.05277   0.29433   0.57757   1.47658
Sr         Sr      0.10994   0.08093   0.52818   1.53373
Sr         Sr      0.65381   0.29376   0.92260   1.47402
Sr         Sr      0.80943   0.08086   0.97158   1.53384
Sr         Sr      0.94723   0.70596   0.42193   1.47718
Sr         Sr      0.89013   0.91932   0.47174   1.53470
Sr         Sr      0.34653   0.70571   0.07745   1.47412
Sr         Sr      0.19059   0.91906   0.02843   1.53399
Sr         Sr     -0.00015   0.49973   0.49938   1.53667
Sr         Sr      0.49998   0.50023   0.00006   1.53563
H          H       0.04975   0.02632   0.62672   0.41467
H          H       0.14676   0.99022   0.62354   0.38240
H          H       0.08389   0.91509   0.49930   0.40361
H          H       0.09669   0.92217   0.54867   0.39712
H          H       0.03503   0.39759   0.40546   0.11127
H          H       0.09391   0.38007   0.32349   0.11779
H          H       0.27081   0.12050   0.34598   0.11392
H          H       0.21313   0.13861   0.42833   0.11702
H          H       0.23269   0.34631   0.27142   0.10767
H          H       0.29999   0.20097   0.15055   0.11408
H          H       0.21202   0.12344   0.27850   0.10912
H          H       0.24372   0.13650   0.12443   0.10778
H          H       0.29853  -0.00043   0.24965   0.11201
H          H       0.31299   0.87516   0.21348   0.12392
H          H       0.20610   0.44712   0.22555   0.11182
H          H       0.37812   0.25268   0.12754   0.11582
H          H       0.41067   0.35441   0.08184   0.11836
H          H       0.17704   0.50424   0.51466   0.11588
H          H       0.30281   0.30871   0.60867   0.12735
H          H       0.24435   0.54655   0.18041   0.12600
H          H       0.26661   0.00933   0.08827   0.10589
H          H       0.79267   0.19002   0.52355   0.10926
H          H       0.64084   0.29598   0.52937   0.09858
H          H       0.68569   0.46348   0.59810   0.10796
H          H       0.83830   0.35544   0.59290   0.10985
H          H       0.51720   0.36306   0.57029   0.11040
H          H       0.32659   0.61849   0.55193   0.11079
H          H       0.58593   0.55709   0.55500   0.11499
H          H       0.28114   0.55291   0.51445   0.10454
H          H       0.40596   0.35956   0.61048   0.11586
H          H       0.25083   0.88167   0.55474   0.09990
H          H       0.29950   0.73556   0.58086   0.11575
H          H       0.55024   0.66133   0.50516   0.10611
H          H       0.50137   0.80922   0.48110   0.12860
H          H       0.92482   0.02585   0.87333   0.41632
H          H       0.86345   0.99047   0.87604   0.38289
H          H       0.00152   0.91471   0.00060   0.40408
H          H       0.98115   0.92170   0.95132   0.39646
H          H       0.56645   0.39805   0.09482   0.11129
H          H       0.52597   0.37996   0.17680   0.11750
H          H       0.60924   0.12040   0.15359   0.11426
H          H       0.64821   0.13905   0.07128   0.11749
H          H       0.42116   0.34662   0.22839   0.10764
H          H       0.49847   0.20185   0.34929   0.11488
H          H       0.66479   0.12347   0.22144   0.11229
H          H       0.61925   0.13717   0.37546   0.10777
H          H       0.70178  -0.00017   0.25012   0.10952
H          H       0.81161   0.87549   0.28626   0.12413
H          H       0.34596   0.44756   0.27397   0.11164
H          H       0.36862   0.25361   0.37212   0.11641
H          H       0.23411   0.35588   0.41794   0.11828
H          H       0.32079   0.50272   0.98471   0.11447
H          H       0.38958   0.30686   0.89095   0.12715
H          H       0.20812   0.54728   0.31941   0.12327
H          H       0.72356   0.00999   0.41156   0.10592
H          H       0.01775   0.18991   0.97652   0.10800
H          H       0.06358   0.29582   0.97080   0.09901
H          H       0.85115   0.46323   0.90218   0.10800
H          H       0.80666   0.35525   0.90727   0.11122
H          H       0.12049   0.36230   0.92995   0.11019
H          H       0.05588   0.61780   0.94808   0.11150
H          H       0.85772   0.55682   0.94499   0.11489
H          H       0.16781   0.55164   0.98560   0.10519
H          H       0.23545   0.35797   0.88959   0.11692
H          H       0.86806   0.88115   0.94497   0.10006
H          H       0.96554   0.73480   0.91887   0.11564
H          H       0.78870   0.66143   0.99478   0.10585
H          H       0.68981   0.80945   0.01887   0.12800
H          H       0.95028   0.97382   0.37325   0.41458
H          H       0.85330   0.00976   0.37645   0.38234
H          H       0.91620   0.08500   0.50070   0.40367
H          H       0.90326   0.07807   0.45136   0.39718
H          H       0.96435   0.60168   0.59371   0.11067
H          H       0.90698   0.61919   0.67580   0.11962
H          H       0.73005   0.87905   0.65371   0.11397
H          H       0.78683   0.86092   0.57128   0.11765
H          H       0.76789   0.65330   0.72824   0.10712
H          H       0.70021   0.79893   0.84903   0.11479
H          H       0.78866   0.87616   0.72113   0.11269
H          H       0.75651   0.86319   0.87525   0.10684
H          H       0.70171   0.00041   0.75007   0.10955
H          H       0.68702   0.12479   0.78642   0.12412
H          H       0.79398   0.55257   0.77423   0.11134
H          H       0.62205   0.74720   0.87212   0.11659
H          H       0.58968   0.64555   0.91795   0.11830
H          H       0.82339   0.49586   0.48457   0.11579
H          H       0.69649   0.69173   0.39095   0.12771
H          H       0.75610   0.45313   0.81955   0.12280
H          H       0.73343   0.99033   0.91151   0.10635
H          H       0.20722   0.81002   0.47650   0.10923
H          H       0.35903   0.70407   0.47072   0.09860
H          H       0.31429   0.53657   0.40193   0.10747
H          H       0.16165   0.64460   0.40710   0.10973
H          H       0.48268   0.63707   0.42972   0.11073
H          H       0.67341   0.38171   0.44815   0.11102
H          H       0.41414   0.44292   0.44503   0.11479
H          H       0.71906   0.44728   0.48527   0.10509
H          H       0.59334   0.64072   0.38947   0.11728
H          H       0.74916   0.11838   0.44523   0.09948
H          H       0.70056   0.26453   0.41922   0.11559
H          H       0.44981   0.33877   0.49490   0.10634
H          H       0.49859   0.19086   0.51888   0.12846
H          H       0.07523   0.97413   0.12668   0.41626
H          H       0.13659   0.00955   0.12395   0.38484
H          H      -0.00150   0.08527  -0.00059   0.40413
H          H       0.01888   0.07828   0.04870   0.39643
H          H       0.43374   0.60192   0.90513   0.11106
H          H       0.47420   0.61990   0.82315   0.11864
H          H       0.39093   0.87946   0.84627   0.11408
H          H       0.35180   0.86097   0.92858   0.11744
H          H       0.57898   0.65335   0.77142   0.10665
H          H       0.50150   0.79828   0.65060   0.11438
H          H       0.33536   0.87656   0.77853   0.11271
H          H       0.38076   0.86302   0.62437   0.10751
H          H       0.29822   0.00024   0.74973   0.10945
H          H       0.18830   0.12453   0.71370   0.12421
H          H       0.65405   0.55267   0.72577   0.11197
H          H       0.63129   0.74651   0.62764   0.11608
H          H       0.76560   0.64445   0.58173   0.11778
H          H       0.67923   0.49722   0.01534   0.11424
H          H       0.61049   0.69311   0.10911   0.12741
H          H       0.79183   0.45290   0.68042   0.12376
H          H       0.27640   0.99012   0.58832   0.10574
H          H       0.98236   0.81001   0.02354   0.10850
H          H       0.93649   0.70412   0.02923   0.09897
H          H       0.14890   0.53661   0.09783   0.10754
H          H       0.19348   0.64454   0.09274   0.11037
H          H       0.87958   0.63769   0.07001   0.11050
H          H       0.94411   0.38222   0.05187   0.11116
H          H       0.14230   0.44311   0.05503   0.11473
H          H       0.83221   0.44829   0.01453   0.10531
H          H       0.76461   0.64196   0.11047   0.11727
H          H       0.13195   0.11883   0.05502   0.10024
H          H       0.03444   0.26518   0.08112   0.11560
H          H       0.21128   0.33856   0.00522   0.10601
H          H       0.31020   0.19054   0.98113   0.12804
C          C       0.08517   0.27768   0.47159   0.61874
C          C       0.11955   0.26881   0.42210  -0.05343
C          C       0.08708   0.33707   0.39245  -0.08880
C          C       0.12021   0.32726   0.34642  -0.13341
C          C       0.18587   0.24888   0.32899   0.07141
C          C       0.21864   0.18093   0.35898  -0.13966
C          C       0.18628   0.19075   0.40501  -0.09063
C          C       0.21866   0.23655   0.27993   0.07468
C          C       0.23794   0.29387   0.25419  -0.17349
C          C       0.26768   0.28188   0.20725   0.07835
C          C       0.27752   0.21084   0.18674  -0.17524
C          C       0.25921   0.15217   0.21178   0.07396
C          C       0.22981   0.16609   0.25850  -0.16731
C          C       0.26914   0.07794   0.19003   0.07136
C          C       0.25989   0.07958   0.14431  -0.13564
C          C       0.28862   0.00315   0.21466  -0.13922
C          C       0.29753   0.93307   0.19468  -0.09167
C          C       0.28903   0.34181   0.18020   0.07333
C          C       0.25217   0.42572   0.19456  -0.13876
C          C       0.34674   0.31726   0.13911  -0.13320
C          C       0.36612   0.37392   0.11341  -0.08772
C          C       0.17057   0.37302   0.56407   0.58232
C          C       0.23296   0.40381   0.56240  -0.02019
C          C       0.22670   0.47306   0.53594  -0.09163
C          C       0.29886   0.36246   0.58864  -0.09156
C          C       0.35081   0.51818   0.10050   0.59030
C          C       0.32966   0.45698   0.12821  -0.03041
C          C       0.27261   0.48207   0.16919  -0.10131
C          C       0.29801   0.86002   0.12717   0.57706
C          C       0.28825   0.93532   0.14908  -0.04153
C          C       0.27034   0.00894   0.12409  -0.10934
C          C       0.91952   0.20376   0.55162   0.58925
C          C       0.82635   0.26640   0.55695  -0.04175
C          C       0.76952   0.24969   0.53994  -0.09504
C          C       0.68349   0.30950   0.54356  -0.13915
C          C       0.65193   0.38826   0.56348   0.06637
C          C       0.70885   0.40402   0.58137  -0.13431
C          C       0.79476   0.34355   0.57846  -0.08565
C          C       0.56173   0.45279   0.56344   0.07620
C          C       0.49900   0.42903   0.56630  -0.15859
C          C       0.41386   0.48803   0.56234   0.07688
C          C       0.39177   0.57258   0.55615  -0.17463
C          C       0.45284   0.59856   0.55384   0.07625
C          C       0.53774   0.53796   0.55766  -0.16078
C          C       0.35078   0.46021   0.56281   0.06546
C          C       0.28509   0.50073   0.53608  -0.13509
C          C       0.35661   0.39055   0.58906  -0.13711
C          C       0.34046   0.94233   0.49788   0.55942
C          C       0.37258   0.85451   0.51568  -0.02407
C          C       0.31660   0.83335   0.54463  -0.09625
C          C       0.34383   0.75112   0.55878  -0.13389
C          C       0.42803   0.68716   0.54425   0.07078
C          C       0.48521   0.70966   0.51714  -0.13274
C          C       0.45786   0.79218   0.50296  -0.09243
C          C       0.63652   0.27828   0.02838   0.61798
C          C       0.61111   0.26926   0.07784  -0.05178
C          C       0.57527   0.33743   0.10766  -0.08800
C          C       0.55242   0.32731   0.15369  -0.13423
C          C       0.56548   0.24884   0.17092   0.07259
C          C       0.60067   0.18096   0.14078  -0.13998
C          C       0.62285   0.19108   0.09475  -0.09210
C          C       0.54496   0.23666   0.21994   0.07378
C          C       0.46821   0.29419   0.24564  -0.17321
C          C       0.45018   0.28246   0.29256   0.07806
C          C       0.51128   0.21147   0.31311  -0.17610
C          C       0.58839   0.15264   0.28809   0.07305
C          C       0.60419   0.16629   0.24138  -0.16799
C          C       0.65261   0.07843   0.30983   0.07081
C          C       0.66010   0.08015   0.35556  -0.13453
C          C       0.70797   0.00355   0.28513  -0.13588
C          C       0.76913   0.93353   0.30506  -0.09409
C          C       0.36875   0.34258   0.31956   0.07410
C          C       0.32158   0.42637   0.30510  -0.13945
C          C       0.33550   0.31822   0.36065  -0.13397
C          C       0.25938   0.37504   0.38636  -0.08804
C          C       0.45813   0.37120   0.93529   0.58250
C          C       0.36481   0.40222   0.93706  -0.01991
C          C       0.30196   0.47161   0.96359  -0.09085
C          C       0.33992   0.36083   0.91102  -0.08971
C          C       0.13018   0.51929   0.39896   0.59035
C          C       0.21284   0.45794   0.37150  -0.03027
C          C       0.24473   0.48282   0.33050  -0.09741
C          C       0.84199   0.86058   0.37235   0.57535
C          C       0.77623   0.93588   0.35062  -0.03782
C          C       0.72033   0.00954   0.37573  -0.11185
C          C       0.87743   0.20354   0.94829   0.59234
C          C       0.90780   0.26622   0.94312  -0.04494
C          C       0.98130   0.24953   0.96015  -0.09192
C          C       0.00748   0.30932   0.95655  -0.14149
C          C       0.96035   0.38798   0.93663   0.06825
C          C       0.88758   0.40376   0.91880  -0.13551
C          C       0.86218   0.34331   0.92166  -0.08476
C          C       0.98621   0.45234   0.93666   0.07506
C          C       0.07279   0.42835   0.93387  -0.15826
C          C       0.09907   0.48724   0.93777   0.07722
C          C       0.03657   0.57192   0.94391  -0.17449
C          C       0.94942   0.59811   0.94620   0.07620
C          C       0.92508   0.53758   0.94240  -0.15955
C          C       0.19017   0.45908   0.93716   0.06595
C          C       0.21574   0.49950   0.96375  -0.13472
C          C       0.25392   0.38917   0.91084  -0.13912
C          C       0.71765   0.94236   0.00205   0.56011
C          C       0.77343   0.85440   0.98425  -0.02592
C          C       0.85059   0.83296   0.95521  -0.09456
C          C       0.90564   0.75063   0.94105  -0.13532
C          C       0.88544   0.68680   0.95569   0.07130
C          C       0.80563   0.70955   0.98282  -0.13292
C          C       0.75044   0.79218   0.99700  -0.09138
C          C       0.91339   0.72229   0.52765   0.61902
C          C       0.87991   0.73055   0.57725  -0.05175
C          C       0.91265   0.66227   0.60684  -0.08861
C          C       0.88029   0.67213   0.65299  -0.13575
C          C       0.81490   0.75054   0.67060   0.07196
C          C       0.78195   0.81855   0.64065  -0.13939
C          C       0.81372   0.80872   0.59455  -0.09227
C          C       0.78218   0.76292   0.71970   0.07344
C          C       0.76266   0.70574   0.74545  -0.17230
C          C       0.73267   0.71784   0.79238   0.07787
C          C       0.72283   0.78893   0.81287  -0.17542
C          C       0.74125   0.84753   0.78783   0.07360
C          C       0.77088   0.83349   0.74111  -0.16937
C          C       0.73119   0.92182   0.80963   0.07003
C          C       0.74032   0.92013   0.85538  -0.13253
C          C       0.71160   0.99671   0.78507  -0.13701
C          C       0.70255   0.06678   0.80514  -0.09217
C          C       0.71115   0.65800   0.81947   0.07292
C          C       0.74794   0.57404   0.80522  -0.13832
C          C       0.65343   0.68261   0.86056  -0.13458
C          C       0.63417   0.62596   0.88636  -0.08769
C          C       0.82973   0.62676   0.43501   0.58405
C          C       0.76699   0.59634   0.43695  -0.01879
C          C       0.77343   0.52711   0.46348  -0.09312
C          C       0.70069   0.63789   0.41098  -0.09151
C          C       0.65024   0.48147   0.89980   0.59059
C          C       0.67084   0.54276   0.87177  -0.03062
C          C       0.72770   0.51766   0.83072  -0.09833
C          C       0.70207   0.13964   0.87274   0.57609
C          C       0.71181   0.06443   0.85075  -0.04048
C          C       0.72974   0.99075   0.87569  -0.11172
C          C       0.08046   0.79640   0.44833   0.58913
C          C       0.17360   0.73368   0.44304  -0.04215
C          C       0.23040   0.75037   0.46009  -0.09463
C          C       0.31642   0.69055   0.45649  -0.13925
C          C       0.34800   0.61181   0.43656   0.06655
C          C       0.29110   0.59605   0.41865  -0.13380
C          C       0.20519   0.65653   0.42153  -0.08564
C          C       0.43819   0.54730   0.43660   0.07537
C          C       0.50088   0.57111   0.43371  -0.15831
C          C       0.58602   0.51211   0.43764   0.07610
C          C       0.60821   0.42755   0.44391  -0.17467
C          C       0.54719   0.40152   0.44624   0.07607
C          C       0.46229   0.46210   0.44239  -0.15917
C          C       0.64903   0.54002   0.43703   0.06662
C          C       0.71495   0.49948   0.46361  -0.13420
C          C       0.64292   0.60976   0.41076  -0.13874
C          C       0.65953   0.05771   0.50211   0.55939
C          C       0.62742   0.14553   0.48431  -0.02439
C          C       0.68341   0.16671   0.45538  -0.09638
C          C       0.65621   0.24896   0.44127  -0.13291
C          C       0.57203   0.31292   0.45583   0.07036
C          C       0.51483   0.29042   0.48292  -0.13375
C          C       0.54214   0.20788   0.49704  -0.09158
C          C       0.36334   0.72176   0.97155   0.61849
C          C       0.38894   0.73074   0.92209  -0.05220
C          C       0.42487   0.66255   0.89227  -0.08830
C          C       0.44775   0.67260   0.84623  -0.13491
C          C       0.43471   0.75106   0.82896   0.07295
C          C       0.39948   0.81894   0.85911  -0.13977
C          C       0.37722   0.80889   0.90514  -0.09169
C          C       0.45519   0.76333   0.77993   0.07241
C          C       0.53192   0.70582   0.75420  -0.17145
C          C       0.54992   0.71763   0.70727   0.07783
C          C       0.48875   0.78863   0.68678  -0.17505
C          C       0.41164   0.84747   0.71181   0.07282
C          C       0.39593   0.83377   0.75854  -0.16853
C          C       0.34739   0.92166   0.69005   0.07148
C          C       0.33985   0.91999   0.64432  -0.13500
C          C       0.29196   0.99653   0.71474  -0.13617
C          C       0.23075   0.06656   0.69483  -0.09308
C          C       0.63136   0.65758   0.68023   0.07423
C          C       0.67853   0.57380   0.69466  -0.13900
C          C       0.66453   0.68191   0.63910  -0.13348
C          C       0.74064   0.62508   0.61335  -0.08754
C          C       0.54177   0.62903   0.06482   0.58222
C          C       0.63515   0.59784   0.06297  -0.02020
C          C       0.69799   0.52841   0.03646  -0.09036
C          C       0.66011   0.63919   0.08900  -0.09024
C          C       0.87034   0.48062   0.60105   0.58970
C          C       0.78734   0.54218   0.62824  -0.03013
C          C       0.75537   0.51734   0.66925  -0.09920
C          C       0.15806   0.13971   0.62747   0.57561
C          C       0.22367   0.06429   0.64925  -0.04082
C          C       0.27959   0.99061   0.62415  -0.11021
C          C       0.12272   0.79629   0.05174   0.59152
C          C       0.09234   0.73362   0.05691  -0.04556
C          C       0.01881   0.75036   0.03989  -0.09183
C          C       0.99260   0.69061   0.04347  -0.14072
C          C       0.03972   0.61193   0.06337   0.06777
C          C       0.11250   0.59609   0.08121  -0.13514
C          C       0.13795   0.65651   0.07835  -0.08434
C          C       0.01383   0.54760   0.06334   0.07461
C          C       0.92724   0.57163   0.06613  -0.15852
C          C       0.90093   0.51276   0.06224   0.07710
C          C       0.96342   0.42808   0.05608  -0.17428
C          C       0.05058   0.40186   0.05378   0.07588
C          C       0.07494   0.46236   0.05759  -0.15897
C          C       0.80982   0.54096   0.06285   0.06579
C          C       0.78422   0.50055   0.03629  -0.13485
C          C       0.74611   0.61086   0.08917  -0.13912
C          C       0.28235   0.05762   0.99794   0.56035
C          C       0.22657   0.14557   0.01575  -0.02574
C          C       0.14941   0.16701   0.04478  -0.09481
C          C       0.09435   0.24934   0.05894  -0.13537
C          C       0.11456   0.31317   0.04429   0.07100
C          C       0.19437   0.29043   0.01718  -0.13279
C          C       0.24957   0.20779   0.00300  -0.09141
O          O       0.10663   0.21123   0.49553  -0.68283
O          O       0.03683   0.35072   0.48905  -0.69153
O          O       0.19256   0.29814   0.57587  -0.56449
O          O       0.09583   0.42497   0.55431  -0.70285
O          O       0.38893   0.49746   0.05990  -0.65489
O          O       0.32838   0.58779   0.11861  -0.61319
O          O       0.28567   0.86809   0.08548  -0.72415
O          O       0.31728   0.79304   0.14937  -0.58221
O          O       0.96911   0.21842   0.56960  -0.67802
O          O       0.94860   0.13627   0.52877  -0.65007
O          O       0.10366   0.99278   0.60725  -0.76947
O          O       0.10037   0.94494   0.51841  -0.82947
O          O       0.25927   0.98898   0.49963  -0.63362
O          O       0.39266   0.96705   0.48208  -0.40724
O          O       0.68217   0.21179   0.00436  -0.68320
O          O       0.61134   0.35134   0.01102  -0.69063
O          O       0.51067   0.29585   0.92408  -0.56125
O          O       0.48161   0.42311   0.94430  -0.70281
O          O       0.11292   0.49913   0.43969  -0.65560
O          O       0.08298   0.58814   0.38025  -0.61412
O          O       0.84734   0.86889   0.41376  -0.72592
O          O       0.88903   0.79316   0.35029  -0.58229
O          O       0.81371   0.21793   0.92991  -0.67932
O          O       0.91540   0.13634   0.97132  -0.65041
O          O       0.90362   0.99290   0.89269  -0.77062
O          O       0.95514   0.94489   0.98155  -0.83018
O          O       0.75211   0.98903   0.00030  -0.63292
O          O       0.64069   0.96711   0.01786  -0.40766
O          O       0.89316   0.78924   0.50433  -0.68139
O          O       0.95975   0.64968   0.50936  -0.69327
O          O       0.80731   0.70209   0.42412  -0.56427
O          O       0.90510   0.57408   0.44363  -0.70049
O          O       0.61073   0.50329   0.94010  -0.65605
O          O       0.67449   0.41102   0.88203  -0.61399
O          O       0.71455   0.13139   0.91441  -0.72466
O          O       0.68276   0.20671   0.85061  -0.58168
O          O       0.03089   0.78186   0.43027  -0.67759
O          O       0.05143   0.86381   0.47125  -0.65021
O          O       0.89636   0.00732   0.39273  -0.76919
O          O       0.89966   0.05521   0.48159  -0.82967
O          O       0.74073   0.01106   0.50037  -0.63356
O          O       0.60733   0.03300   0.51791  -0.40741
O          O       0.31762   0.78819   0.99559  -0.68225
O          O       0.38847   0.64869   0.98892  -0.69150
O          O       0.48935   0.70450   0.07583  -0.56020
O          O       0.51817   0.57708   0.05601  -0.70434
O          O       0.88834   0.50003   0.56026  -0.65580
O          O       0.91730   0.41205   0.62009  -0.61262
O          O       0.15313   0.13158   0.58593  -0.72516
O          O       0.11084   0.20701   0.64960  -0.57992
O          O       0.18642   0.78191   0.07013  -0.67863
O          O       0.08471   0.86347   0.02870  -0.64981
O          O       0.09643   0.00706   0.10731  -0.77347
O          O       0.04489   0.05511   0.01846  -0.83043
O          O       0.24789   0.01096  -0.00030  -0.63318
O          O       0.35931   0.03289   0.98214  -0.40779

