data_crystal

_audit_creation_method 'AiiDA-DDEC plugin'

_cell_length_a        15.37375
_cell_length_b        15.37442
_cell_length_c        48.58059

_cell_angle_alpha     94.45849
_cell_angle_beta     94.38102
_cell_angle_gamma     96.36575

_symmetry_space_group_name_Hall 'P 1'
_symmetry_space_group_name_H-M  'P 1'

loop_
_symmetry_equiv_pos_as_xyz
 'x,y,z'

loop_
_atom_site_label
_atom_site_type_symbol
_atom_site_fract_x
_atom_site_fract_y
_atom_site_fract_z
_atom_site_charge
Zn         Zn      0.14888   0.37526   0.61865   0.82224
Zn         Zn      0.27985   0.24509   0.17606   0.82838
Zn         Zn      0.26570   0.23069   0.11770   0.82746
Zn         Zn      0.16268   0.39193   0.67691   0.83165
Zn         Zn      0.76915   0.73439   0.88226   0.82804
Zn         Zn      0.60826   0.83719   0.32309   0.83064
Zn         Zn      0.62478   0.85132   0.38137   0.82239
Zn         Zn      0.75487   0.72017   0.82388   0.82818
H          H       0.26570   0.18423   0.76497   0.13652
H          H       0.41122   0.25783   0.33759   0.14072
H          H       0.02600   0.27752   0.57286   0.11710
H          H       0.32490   0.42830   0.27010   0.13094
H          H       0.20437   0.14389   0.22103   0.10828
H          H       0.13787   0.35406   0.00993   0.13375
H          H       0.24035   0.45417   0.52367   0.13190
H          H       0.29860   0.41268   0.86917   0.11975
H          H       0.36089   0.19206   0.93140   0.11425
H          H       0.20438   0.84275   0.69029   0.10457
H          H       0.82587   0.27272   0.10483   0.10418
H          H       0.38256   0.24925   0.30126   0.13021
H          H       0.73282   0.29048   0.19025   0.10415
H          H       0.01220   0.26236   0.52062   0.12978
H          H       0.07237   0.40081   0.34169   0.10998
H          H       0.43230   0.35010   0.31865   0.12679
H          H       0.32518   0.51337   0.10614   0.11376
H          H       0.32927   0.97972   0.18956   0.11754
H          H       0.69359   0.18927   0.10457   0.10366
H          H       0.20417   0.22627   0.43521   0.12745
H          H       0.01616   0.46317   0.50557   0.12857
H          H       0.19228   0.29960   0.89324   0.26529
H          H       0.60949   0.42072   0.69224   0.10284
H          H       0.09985   0.80266   0.60491   0.10403
H          H       0.14485   0.45300   0.39043   0.06401
H          H       0.30037   0.51399   0.80823   0.13103
H          H       0.24071   0.40822   0.40210   0.09008
H          H       0.37605   0.32154   0.02691   0.12686
H          H       0.34426   0.38884   0.21987   0.10823
H          H       0.05953   0.26878   0.99406   0.12837
H          H       0.13192   0.15036   0.01736   0.12734
H          H       0.26923   0.14334   0.83532   0.11690
H          H       0.26842   0.52662   0.84239   0.13531
H          H       0.41784   0.12734   0.96944   0.13573
H          H       0.06723   0.30643   0.38943   0.24613
H          H       0.32704   0.33656   0.36998   0.11552
H          H       0.11016   0.64238   0.60570   0.11457
H          H       0.27141   0.26135   0.50570   0.13109
H          H       0.07769   0.31478   0.77295   0.13214
H          H       0.04022   0.43296   0.42936   0.12292
H          H       0.57116   0.29379   0.19112   0.11356
H          H       0.07859   0.36778   0.97796   0.13478
H          H       0.31755   0.17696   0.88263   0.08545
H          H       0.05174   0.34842   0.72325   0.10693
H          H       0.44032   0.21465   0.99591   0.12741
H          H       0.31479   0.43045   0.71876   0.10632
H          H       0.23493   0.10389   0.78798   0.13677
H          H       0.58140   0.34839   0.60427   0.10337
H          H       0.10436   0.38883   0.26902   0.13346
H          H       0.17767   0.17338   0.27118   0.13318
H          H       0.24859   0.17658   0.47819   0.13490
H          H       0.37833   0.30858   0.07819   0.11306
H          H       0.87147   0.40121   0.60559   0.11562
H          H       0.06891   0.53816   0.48460   0.13635
H          H       0.37151   0.28372   0.89310   0.08232
H          H       0.14341   0.14586   0.06906   0.10711
H          H       0.24474   0.46145   0.57578   0.11224
H          H       0.18782   0.49841   0.81399   0.13392
H          H       0.96643   0.47872   0.47230   0.13622
H          H       0.04632   0.29295   0.27925   0.13283
H          H       0.24686   0.68519   0.18959   0.10693
H          H       0.88431   0.35751   0.69166   0.11231
H          H       0.17528   0.93268   0.60380   0.10271
H          H       0.20755   0.68136   0.69118   0.11664
H          H       0.42051   0.35492   0.60404   0.11527
H          H       0.12775   0.32317   0.93533   0.12104
H          H       0.32563   0.67605   0.10646   0.10462
H          H       0.02745   0.39712   0.29437   0.13448
H          H       0.98670   0.26445   0.10377   0.11621
H          H       0.25020   0.52309   0.18928   0.11214
H          H       0.12234   0.11460   0.68842   0.11414
H          H       0.33849   0.81870   0.18985   0.10544
H          H       0.36392   0.12359   0.00052   0.13128
H          H       0.15559   0.16545   0.77283   0.13238
H          H       0.71099   0.40966   0.60542   0.10347
H          H       0.00114   0.19397   0.18732   0.11396
H          H       0.22144   0.77947   0.10588   0.10617
H          H       0.12122   0.95279   0.68957   0.10320
H          H       0.53271   0.19711   0.10555   0.11491
H          H       0.72293   0.35734   0.69143   0.10492
H          H       0.21538   0.94114   0.10568   0.11678
H          H       0.83955   0.19723   0.18838   0.10419
H          H       0.17553   0.18660   0.50463   0.13262
H          H       0.35229   0.40143   0.76832   0.13162
H          H       0.17047   0.09391   0.60270   0.11342
H          H       0.44822   0.42195   0.69164   0.10784
H          H       0.82328   0.75132   0.52175   0.13512
H          H       0.82683   0.82246   0.72884   0.13314
H          H       0.88571   0.87771   0.31157   0.11380
H          H       0.87648   0.63613  -0.00068   0.13291
H          H       0.05864   0.78472   0.89427   0.11672
H          H       0.80807   0.63910   0.06848   0.11480
H          H       0.48626   0.67477   0.89381   0.11367
H          H       0.53684   0.98390   0.49458   0.12861
H          H       0.85669   0.73066   0.16458   0.11691
H          H       0.70055   0.80770   0.10678   0.26431
H          H       0.63223   0.92138   0.02215   0.13402
H          H       0.59010   0.28903   0.39456   0.10318
H          H       0.31887   0.79243   0.30884   0.11670
H          H       0.48603   0.69957   0.19176   0.13071
H          H       0.60300   0.97255   0.70573   0.13562
H          H       0.70714   0.95374   0.72083   0.13316
H          H       0.78541   0.55973   0.00393   0.12797
H          H       0.71635   0.62840   0.10680   0.08221
H          H       0.47343   0.73146   0.15762   0.13558
H          H       0.53839   0.75523   0.42427   0.11190
H          H       0.15751   0.79565   0.30973   0.10489
H          H       0.54698   0.85466   0.60963   0.06445
H          H       0.57193   0.67508   0.72991   0.13093
H          H       0.31495   0.75307   0.81035   0.10795
H          H       0.59860   0.64756   0.23159   0.13213
H          H       0.56966   0.68497   0.28119   0.10577
H          H       0.70947   0.26705   0.80980   0.10443
H          H       0.74225   0.58864   0.66239   0.14109
H          H       0.56705   0.95992   0.57076   0.12326
H          H       0.81056   0.30676   0.89546   0.10521
H          H       0.64530   0.57950   0.39598   0.11452
H          H       0.64260   0.27678   0.30855   0.10445
H          H       0.04748   0.87843   0.31043   0.10362
H          H       0.84975   0.86813   0.98262   0.12763
H          H       0.81564   0.73424   0.23495   0.13613
H          H       0.68513   0.92223   0.22708   0.13217
H          H       0.64242   0.11537   0.30830   0.11173
H          H       0.73545   0.01355   0.89627   0.11589
H          H       0.80269   0.16044   0.81165   0.10410
H          H       0.73118   0.94057   0.00601   0.12893
H          H       0.80286   0.46763   0.89444   0.11488
H          H       0.64595   0.86217   0.99015   0.13415
H          H       0.72713   0.17438   0.89522   0.10512
H          H       0.64991   0.56772   0.68133   0.12683
H          H       0.59224   0.75905   0.59794   0.09079
H          H       0.73750   0.98776   0.47944   0.12984
H          H       0.69136   0.62182   0.92176   0.10794
H          H       0.58742   0.70127   0.13079   0.11984
H          H       0.67851   0.62405   0.97305   0.12698
H          H       0.77361   0.79580   0.56477   0.12720
H          H       0.19723   0.90023   0.39514   0.10330
H          H       0.59844   0.12849   0.39437   0.11532
H          H       0.52128   0.03362   0.52788   0.13575
H          H       0.35755   0.88988   0.39434   0.11436
H          H       0.73856   0.72852   0.49425   0.13124
H          H       0.61125   0.89563   0.73105   0.13308
H          H       0.85624   0.79565   0.77896   0.10856
H          H       0.66356   0.67282   0.63003   0.11575
H          H       0.06694   0.82432   0.39618   0.10248
H          H       0.50162   0.81212   0.18603   0.13340
H          H       0.61137   0.65564   0.78011   0.10780
H          H       0.65154   0.94808   0.27681   0.10677
H          H       0.47711   0.74976   0.81070   0.11246
H          H       0.54574   0.75959   0.47637   0.13153
H          H       0.67692   0.87224   0.06473   0.12106
H          H       0.82312   0.68233   0.11726   0.08552
H          H       0.65160   0.41859   0.39572   0.10345
H          H       0.22028   0.77856   0.89407   0.10597
H          H       0.57835   0.55161   0.30839   0.10858
H          H       0.46183   0.93115   0.51555   0.13586
H          H       0.75076   0.61739   0.69872   0.12918
H          H       0.83445   0.84436   0.22712   0.13224
H          H       0.69313   0.93299   0.61062   0.24585
H          H       0.89605   0.76501   0.21195   0.13739
H          H       0.59939   0.92758   0.65840   0.10977
H          H       0.32360   0.67433   0.89345   0.10329
H          H       0.80600  -0.00112   0.81268   0.11395
H          H       0.57921   0.39033   0.30777   0.10338
H          H       0.81332   0.82441   0.49536   0.13306
H          H       0.70628   0.42875   0.80889   0.11374
H          H       0.18128   0.66155   0.81005   0.10487
H          H       0.90587   0.82996   0.39729   0.11375
H          H       0.87274   0.58216   0.03036   0.13613
H          H       0.02035   0.67090   0.81035   0.11822
H          H       0.72238   0.97395   0.42720   0.11269
H          H       0.85416   0.85669   0.93091   0.11229
C          C       0.30776   0.64252   0.12449  -0.14789
C          C       0.84534   0.36765   0.67281  -0.09300
C          C       0.19338   0.18348   0.05866   0.09086
C          C       0.24867   0.30395   0.27481   0.15096
C          C       0.13385   0.98344   0.67060  -0.14404
C          C       0.28472   0.38953   0.75918  -0.18962
C          C       0.24363   0.25830   0.92957   0.24737
C          C       0.27753   0.34220   0.35316  -0.21136
C          C       0.02919   0.47384   0.48414  -0.42347
C          C       0.22392   0.16911   0.78176  -0.42147
C          C       0.31488   0.21159   0.97173   0.14593
C          C       0.23958   0.32751   0.80283  -0.08974
C          C       0.75493   0.36880   0.67262  -0.14043
C          C       0.26470   0.40618   0.73184   0.09308
C          C       0.28334   0.41015   0.14705   0.58036
C          C       0.59901   0.27155   0.17227  -0.09471
C          C       0.14676   0.21145   0.64489   0.58512
C          C       0.86354   0.25359   0.12279  -0.14693
C          C       0.96166   0.21056   0.16938  -0.09540
C          C       0.11078   0.32062   0.98981  -0.42237
C          C       0.82070   0.23549   0.14669   0.06562
C          C       0.28679   0.27476   0.85534   0.09343
C          C       0.12314   0.34769   0.48708  -0.09726
C          C       0.24948   0.24361   0.98734  -0.13564
C          C       0.32736   0.39112   0.64735   0.58332
C          C       0.07633   0.39113   0.44199  -0.26791
C          C       0.19449   0.41870   0.56257   0.09193
C          C       0.12571   0.35715   0.51788   0.14868
C          C       0.28290   0.36361   0.85157  -0.22537
C          C       0.32547   0.27465   0.06376   0.08781
C          C       0.19777   0.37150   0.35926   0.10320
C          C       0.26666   0.21262   0.83256  -0.22292
C          C       0.24656   0.82333   0.12408  -0.14810
C          C       0.30881   0.24721   0.88394  -0.04994
C          C       0.21792   0.35412   0.77457   0.14899
C          C       0.14943   0.35398   0.30983   0.13175
C          C       0.28725   0.50829   0.14764  -0.03451
C          C       0.66741   0.21397   0.12344  -0.14663
C          C       0.16316   0.55504   0.64862   0.58681
C          C       0.25377   0.48743   0.82240  -0.42435
C          C       0.27190   0.97009   0.14759  -0.03686
C          C       0.47845   0.40693   0.67260  -0.09349
C          C       0.00369   0.22859   0.14547  -0.03318
C          C       0.42460   0.38972   0.64775  -0.03511
C          C       0.32370   0.28106   0.03537  -0.19005
C          C       0.26569   0.64801   0.17146  -0.14798
C          C       0.30845   0.55190   0.12429  -0.09367
C          C       0.17885   0.39344   0.38888  -0.06448
C          C       0.68916   0.26862   0.17173  -0.14712
C          C       0.54211   0.24628   0.14833  -0.03748
C          C       0.10110   0.22747   0.14527   0.58205
C          C       0.31113   0.21874   0.94317  -0.29372
C          C       0.22985   0.20580   0.23284   0.09642
C          C       0.95349   0.24975   0.12212  -0.09918
C          C       0.16190   0.97181   0.62229  -0.14524
C          C       0.12284   0.32839   0.42913   0.22699
C          C       0.55319   0.36670   0.62343  -0.14330
C          C       0.18189   0.79912   0.67181  -0.14436
C          C       0.18495   0.70903   0.67237  -0.09609
C          C       0.87159   0.21347   0.16993  -0.14658
C          C       0.29739   0.36439   0.26005  -0.19094
C          C       0.13465   0.37735   0.33737  -0.22605
C          C       0.24223   0.91332   0.12393  -0.09261
C          C       0.70414   0.38318   0.64837   0.06441
C          C       0.06456   0.30731   0.53209  -0.19593
C          C       0.38792   0.16686   0.98510  -0.42074
C          C       0.13204   0.34084   0.76173  -0.19104
C          C       0.24327   0.23757   0.80612   0.13580
C          C       0.29615   0.32018   0.32587   0.13695
C          C       0.12563   0.77692   0.62370  -0.14285
C          C       0.38472   0.29227   0.32044  -0.42659
C          C       0.30903   0.34303   0.23230   0.09172
C          C       0.17943   0.29090   0.94549  -0.29296
C          C       0.15197   0.83499   0.64749   0.06442
C          C       0.28093   0.78759   0.14783   0.06296
C          C       0.57745   0.21761   0.12390  -0.09738
C          C       0.25335   0.23693   0.01763   0.14543
C          C       0.21519   0.22278   0.26058  -0.19375
C          C       0.14616   0.11407   0.64545  -0.03871
C          C       0.21884   0.22372   0.49157  -0.42063
C          C       0.14889   0.93058   0.64681   0.06372
C          C       0.74784   0.39572   0.62426  -0.14879
C          C       0.19152   0.41415   0.53378  -0.19435
C          C       0.44477   0.24801   0.14873   0.57856
C          C       0.07638   0.40231   0.47095   0.13555
C          C       0.26696   0.55752   0.17133  -0.09740
C          C       0.83789   0.39219   0.62424  -0.09483
C          C       0.18101   0.28349   0.97389   0.14814
C          C       0.28513   0.69208   0.14794   0.06735
C          C       0.13331   0.07380   0.67000  -0.09284
C          C       0.98505   0.37686   0.64869   0.58601
C          C       0.60829   0.38516   0.64821   0.06199
C          C       0.11693   0.35925   0.73429   0.09363
C          C       0.56877   0.40524   0.67280  -0.14288
C          C       0.25918   0.39141   0.82558   0.13846
C          C       0.15989   0.65209   0.64842  -0.03304
C          C       0.26911   0.06726   0.14735   0.58391
C          C       0.88775   0.37833   0.64854  -0.03397
C          C       0.13033   0.68715   0.62407  -0.10083
C          C       0.07840   0.35883   0.28694  -0.42287
C          C       0.31030   0.84509   0.17150  -0.14958
C          C       0.07164   0.31523   0.56094   0.09076
C          C       0.16001   0.06194   0.62156  -0.09437
C          C       0.16942   0.28312   0.47444   0.13319
C          C       0.72520   0.23949   0.14732   0.06521
C          C       0.23128   0.32609   0.30415  -0.09186
C          C       0.16898   0.27511   0.44557  -0.24642
C          C       0.30575   0.93502   0.17142  -0.09648
C          C       0.46302   0.36954   0.62315  -0.09505
C          C       0.18733   0.18700   0.03007  -0.19146
C          C       0.72847   0.40098   0.82774  -0.09443
C          C       0.63114   0.24484   0.32736  -0.13978
C          C       0.67248   0.76034   0.19713  -0.08896
C          C       0.64623   0.85060   0.69023   0.13337
C          C       0.75372   0.45800   0.85167  -0.03612
C          C       0.88606   0.85462   0.35458  -0.03886
C          C       0.68000   0.70382   0.67414   0.13783
C          C       0.64071   0.88291   0.26574   0.09280
C          C       0.34803   0.84011   0.35161  -0.03370
C          C       0.61670   0.29571   0.35162   0.06408
C          C       0.61060   0.67284   0.35264   0.58600
C          C       0.73135   0.31083   0.82830  -0.14746
C          C       0.78593   0.33283   0.87658  -0.14982
C          C       0.64584   0.78197   0.22540   0.14827
C          C       0.31286   0.86972   0.37596  -0.09999
C          C       0.60885   0.92375   0.55810  -0.26916
C          C       0.52615   0.97087   0.51601  -0.42204
C          C       0.01676   0.86606   0.32942  -0.14411
C          C       0.59385   0.73511   0.26813   0.09348
C          C       0.78644   0.12845   0.83010  -0.14693
C          C       0.58573   0.80843   0.46626  -0.19487
C          C       0.59331   0.52146   0.32743  -0.09398
C          C       0.72530   0.67467   0.93619   0.09185
C          C       0.44506   0.83657   0.35140   0.58737
C          C       0.78935   0.03838   0.83064  -0.09540
C          C       0.29115   0.81507   0.32766  -0.09517
C          C       0.64130   0.92163   0.71314  -0.42465
C          C       0.70920   0.82058   0.05454  -0.29452
C          C       0.78877   0.85497   0.35512   0.58512
C          C       0.67941   0.88924   0.01026  -0.42294
C          C       0.63328   0.44673   0.37657  -0.14387
C          C       0.77245   0.89899   0.85474   0.58225
C          C       0.76438   0.17942   0.85335   0.06604
C          C       0.60759   0.16205   0.37573  -0.09517
C          C       0.93795   0.84044   0.37845  -0.09535
C          C       0.78138   0.68887   0.05675  -0.29608
C          C       0.62287   0.86532   0.66270  -0.22645
C          C       0.63646   0.71699   0.14839  -0.22437
C          C       0.77131   0.99642   0.85455  -0.03331
C          C       0.75288   0.69109   0.11598  -0.04899
C          C       0.22307   0.87447   0.37634  -0.14264
C          C       0.49166   0.71276   0.85232  -0.03598
C          C       0.06946   0.85107   0.35322   0.06347
C          C       0.74181   0.75635   0.07040   0.24983
C          C       0.60672   0.82095   0.61117  -0.06600
C          C       0.77740   0.78491   0.73943  -0.19162
C          C       0.61046   0.71513   0.24077  -0.18977
C          C       0.77616   0.78108   0.50841  -0.42156
C          C       0.62287   0.01484   0.35131   0.58595
C          C       0.58980   0.71671   0.85288   0.58330
C          C       0.83082   0.77602   0.21817  -0.42165
C          C       0.83322   0.61211   0.01475  -0.42286
C          C       0.60862   0.74073   0.17440   0.13721
C          C       0.20106   0.81817   0.32822  -0.14479
C          C       0.78852   0.68515   0.02818   0.14698
C          C       0.72477   0.83099   0.55444  -0.24699
C          C       0.81652   0.80674   0.94130   0.08666
C          C       0.61098   0.57545   0.35228  -0.03601
C          C       0.69255   0.93540   0.46797  -0.19617
C          C       0.78741   0.73324   0.16736  -0.22255
C          C       0.67412   0.76876   0.69587  -0.09209
C          C       0.06497   0.69438   0.82850  -0.09862
C          C       0.21233   0.71910   0.85209   0.06237
C          C       0.79436   0.77018   0.76715   0.09461
C          C       0.44791   0.69154   0.87565  -0.09316
C          C       0.76313   0.74674   0.98233   0.14708
C          C       0.02802   0.83805   0.37771  -0.14504
C          C       0.65221   0.87681   0.51297  -0.09657
C          C       0.67154   0.87721   0.57092   0.22829
C          C       0.69626   0.75142   0.72520   0.14936
C          C       0.65910   0.86785   0.23828  -0.18998
C          C       0.78236   0.42279   0.87610  -0.09718
C          C       0.75012   0.04669   0.87791  -0.09837
C          C       0.71660   0.81903   0.02613   0.14877
C          C       0.74628   0.13665   0.87725  -0.14820
C          C       0.64274   0.87424   0.48217   0.14874
C          C       0.51260   0.74615   0.17760  -0.42405
C          C       0.15490   0.68980   0.82842  -0.14734
C          C       0.59765   0.92365   0.52914   0.13503
C          C       0.70780   0.61523   0.67954  -0.42655
C          C       0.58116   0.80549   0.43748   0.09231
C          C       0.16508   0.84811   0.35254   0.06409
C          C       0.62146   0.11211   0.35142  -0.03348
C          C       0.63064   0.53694   0.37687  -0.09420
C          C       0.76242   0.75665   0.19382   0.13574
C          C       0.65716   0.69093   0.76768   0.09177
C          C       0.72531   0.71309   0.14460   0.09287
C          C       0.08650   0.75785   0.87600  -0.09333
C          C       0.35204   0.73427   0.82848  -0.14950
C          C       0.62871   0.80214   0.64079   0.10324
C          C       0.71896   0.67640   0.96459  -0.19089
C          C       0.02980   0.72826   0.85234  -0.03467
C          C       0.75203   0.55533   0.85127   0.57724
C          C       0.93262   0.73106   0.85259   0.58279
C          C       0.92645   0.86697   0.33001  -0.09213
C          C       0.61479   0.39159   0.35179   0.06270
C          C       0.65798   0.72239   0.64686  -0.21119
C          C       0.76039   0.27492   0.85272   0.06570
C          C       0.35728   0.69222   0.87543  -0.14702
C          C       0.17648   0.75349   0.87585  -0.14801
C          C       0.63581   0.70263   0.73995  -0.18979
C          C       0.71675   0.83050   0.52557   0.13334
C          C       0.44253   0.73302   0.82862  -0.09636
C          C       0.81307   0.81275   0.96990  -0.19302
C          C       0.75648   0.75058   0.01263  -0.13586
C          C       0.59473   0.43109   0.32721  -0.14348
C          C       0.30784   0.71484   0.85199   0.06725
C          C       0.63229   0.15443   0.32716  -0.09263
C          C       0.68464   0.92833   0.43911   0.09547
C          C       0.60410   0.25210   0.37573  -0.14793
N          N       0.18234   0.39011   0.71939  -0.19836
N          N       0.13576   0.36978   0.57592  -0.19300
N          N       0.26129   0.22666   0.07532  -0.20603
N          N       0.23813   0.26405   0.90135  -0.34376
N          N       0.12849   0.31719   0.39966  -0.41109
N          N       0.27563   0.26508   0.21878  -0.20157
N          N       0.60989   0.81746   0.28061  -0.19788
N          N       0.77325   0.73888   0.92463  -0.20569
N          N       0.68277   0.87168   0.60039  -0.41098
N          N       0.73604   0.76181   0.09862  -0.34425
N          N       0.63008   0.86422   0.42412  -0.19296
N          N       0.73508   0.72432   0.78119  -0.20155
O          O       0.41512   0.26418   0.17215  -0.54668
O          O       0.14366   0.22093   0.16842  -0.55678
O          O       0.02825   0.38533   0.67242  -0.54938
O          O       0.39936   0.23223   0.12534  -0.55748
O          O       0.29495   0.39652   0.67074  -0.55773
O          O       0.14772   0.25587   0.66820  -0.56066
O          O       0.14681   0.24233   0.62121  -0.55387
O          O       0.27622   0.37675   0.17017  -0.55852
O          O       0.28477   0.38578   0.62361  -0.54849
O          O       0.17258   0.52436   0.67217  -0.55066
O          O       0.28599   0.36793   0.12359  -0.55090
O          O       0.01674   0.36799   0.62525  -0.55574
O          O       0.28620   0.11259   0.17074  -0.55274
O          O       0.25082   0.09667   0.12405  -0.55051
O          O       0.13403   0.23414   0.12207  -0.55227
O          O       0.15556   0.51069   0.62503  -0.56105
O          O       0.63157   0.98348   0.37477  -0.55473
O          O       0.90317   0.74919   0.87592  -0.55094
O          O       0.63198   0.71411   0.87632  -0.55233
O          O       0.77907   0.85640   0.83158  -0.55681
O          O       0.76578   0.86607   0.87794  -0.55325
O          O       0.88733   0.71392   0.82922  -0.55187
O          O       0.61457   0.97133   0.32760  -0.54996
O          O       0.60650   0.70515   0.32925  -0.55675
O          O       0.74437   0.85252   0.33179  -0.55932
O          O       0.76778   0.60080   0.87466  -0.55708
O          O       0.47580   0.82682   0.32784  -0.55166
O          O       0.48935   0.84437   0.37498  -0.56112
O          O       0.61495   0.71558   0.37636  -0.55080
O          O       0.75792   0.85691   0.37885  -0.55471
O          O       0.62322   0.72377   0.82973  -0.55924
O          O       0.73589   0.58491   0.82785  -0.54607

