data_crystal

_audit_creation_method 'AiiDA-DDEC plugin'

_cell_length_a        12.98667
_cell_length_b        16.23664
_cell_length_c        40.90307

_cell_angle_alpha     89.99918
_cell_angle_beta     99.23059
_cell_angle_gamma     90.00224

_symmetry_space_group_name_Hall 'P 1'
_symmetry_space_group_name_H-M  'P 1'

loop_
_symmetry_equiv_pos_as_xyz
 'x,y,z'

loop_
_atom_site_label
_atom_site_type_symbol
_atom_site_fract_x
_atom_site_fract_y
_atom_site_fract_z
_atom_site_charge
Sr         Sr      0.86718   0.57207   0.23606   1.51231
Sr         Sr      0.15688   0.63894   0.25606   1.49644
Sr         Sr      0.63278   0.07218   0.76401   1.51240
Sr         Sr      0.34315   0.13851   0.74398   1.49652
Sr         Sr      0.13283   0.42792   0.76394   1.51227
Sr         Sr      0.84311   0.36110   0.74394   1.49646
Sr         Sr      0.36721   0.92782   0.23599   1.51246
Sr         Sr      0.65685   0.86148   0.25602   1.49634
H          H       0.84056   0.68424   0.30630   0.10642
H          H       0.74604   0.74140   0.34916   0.12119
H          H       0.03072   0.73814   0.41963   0.09768
H          H       0.12560   0.68010   0.37635   0.10740
H          H       0.76578   0.61814   0.39421   0.10802
H          H       0.65805   0.52298   0.42134   0.09994
H          H       0.59041   0.56604   0.47254   0.10188
H          H       0.63571   0.70264   0.49730   0.09995
H          H       0.79861   0.97681   0.49151   0.09600
H          H       0.89543   0.07617   0.46203   0.09552
H          H       0.95848   0.03497   0.41004   0.09690
H          H       0.92864   0.89351   0.38813   0.11840
H          H       0.56114   0.86894   0.45903   0.10560
H          H       0.38293   0.90816   0.46730   0.09781
H          H       0.34362   0.92975   0.52438   0.10218
H          H       0.48167   0.91425   0.57282   0.11571
H          H       0.85572   0.85671   0.61907   0.11779
H          H       0.02892   0.80892   0.61053   0.10822
H          H       0.06269   0.77475   0.55369   0.09709
H          H       0.92279   0.78977   0.50561   0.10564
H          H       0.70381   0.75596   0.61904   0.10910
H          H       0.68373   0.77121   0.67856   0.12601
H          H       0.61069   0.02725   0.66223   0.11096
H          H       0.61802   0.01060   0.60211   0.10715
H          H       0.87943   0.67367   0.11934   0.10978
H          H       0.97255   0.72368   0.07419   0.09538
H          H       0.23092   0.80162   0.14741   0.12640
H          H       0.13615   0.75626   0.19168   0.09728
H          H       0.22596   0.63942   0.10515   0.11051
H          H       0.34065   0.54043   0.08230   0.10505
H          H       0.41329   0.57545   0.03122   0.09786
H          H       0.36712   0.70673   0.00200   0.09918
H          H       0.06636   0.91450   0.10396   0.11587
H          H       0.03783   0.05340   0.07909   0.09595
H          H       0.09923   0.08549   0.02594   0.09753
H          H       0.19469   0.98099   0.99854   0.09884
H          H       0.43433   0.87380   0.03847   0.10545
H          H       0.61677   0.90935   0.03374   0.09669
H          H       0.66745   0.93044   0.97806   0.10240
H          H       0.53618   0.91941   0.92763   0.11804
H          H       0.08372   0.78322   0.98466   0.10704
H          H       0.95396   0.76426   0.93406   0.09913
H          H       0.99710   0.80422   0.87887   0.11144
H          H       0.17026   0.86070   0.87442   0.11861
H          H       0.39082   0.02990   0.90501   0.10144
H          H       0.42433   0.07173   0.84965   0.10175
H          H       0.37525   0.82228   0.81499   0.12714
H          H       0.33351   0.78137   0.86989   0.10842
H          H       0.65946   0.18420   0.69369   0.10625
H          H       0.75400   0.24139   0.65084   0.12068
H          H       0.46929   0.23815   0.58036   0.09801
H          H       0.37442   0.18013   0.62365   0.10774
H          H       0.73424   0.11813   0.60578   0.10809
H          H       0.84195   0.02298   0.57865   0.09981
H          H       0.90958   0.06604   0.52745   0.10188
H          H       0.86429   0.20264   0.50269   0.09989
H          H       0.70138   0.47682   0.50848   0.09613
H          H       0.60457   0.57618   0.53795   0.09565
H          H       0.54153   0.53498   0.58994   0.09704
H          H       0.57137   0.39352   0.61186   0.11821
H          H       0.93886   0.36893   0.54095   0.10566
H          H       0.11706   0.40816   0.53268   0.09756
H          H       0.15635   0.42977   0.47559   0.10193
H          H       0.01830   0.41425   0.42715   0.11594
H          H       0.64425   0.35672   0.38092   0.11792
H          H       0.47105   0.30893   0.38946   0.10889
H          H       0.43728   0.27474   0.44630   0.09739
H          H       0.57719   0.28975   0.49438   0.10546
H          H       0.79583   0.25596   0.38088   0.10897
H          H       0.81662   0.27102   0.32145   0.12590
H          H       0.88957   0.52712   0.33774   0.11023
H          H       0.88172   0.51061   0.39781   0.10744
H          H       0.62053   0.17368   0.88065   0.10967
H          H       0.52743   0.22367   0.92581   0.09517
H          H       0.26903   0.30161   0.85259   0.12682
H          H       0.36375   0.25624   0.80831   0.09775
H          H       0.27405   0.13947   0.89486   0.11046
H          H       0.15934   0.04045   0.91770   0.10525
H          H       0.08668   0.07545   0.96878   0.09814
H          H       0.13286   0.20673   0.99800   0.09897
H          H       0.43362   0.41447   0.89605   0.11605
H          H       0.46214   0.55339   0.92090   0.09583
H          H       0.40076   0.58550   0.97405   0.09740
H          H       0.30531   0.48100   0.00146   0.09878
H          H       0.06561   0.37380   0.96149   0.10581
H          H       0.88316   0.40934   0.96627   0.09704
H          H       0.83253   0.43046   0.02195   0.10279
H          H       0.96385   0.41938   0.07235   0.11781
H          H       0.41638   0.28321   0.01534   0.10693
H          H       0.54607   0.26426   0.06595   0.09913
H          H       0.50291   0.30425   0.12114   0.11125
H          H       0.32970   0.36072   0.12556   0.11851
H          H       0.10914   0.52954   0.09481   0.10155
H          H       0.07520   0.57179   0.15005   0.10177
H          H       0.12398   0.32223   0.18483   0.12685
H          H       0.16634   0.28151   0.13001   0.10789
H          H       0.15943   0.31575   0.69369   0.10622
H          H       0.25395   0.25860   0.65084   0.12093
H          H       0.96927   0.26186   0.58037   0.09798
H          H       0.87439   0.31989   0.62365   0.10755
H          H       0.23421   0.38186   0.60579   0.10793
H          H       0.34194   0.47701   0.57866   0.09975
H          H       0.40958   0.43396   0.52746   0.10173
H          H       0.36428   0.29735   0.50270   0.09999
H          H       0.20138   0.02319   0.50849   0.09607
H          H       0.10456   0.92382   0.53797   0.09576
H          H       0.04151   0.96503   0.58996   0.09707
H          H       0.07135   0.10649   0.61187   0.11834
H          H       0.43885   0.13105   0.54096   0.10547
H          H       0.61706   0.09184   0.53270   0.09760
H          H       0.65637   0.07025   0.47561   0.10210
H          H       0.51832   0.08575   0.42717   0.11579
H          H       0.14427   0.14329   0.38093   0.11801
H          H       0.97107   0.19108   0.38947   0.10864
H          H       0.93730   0.22524   0.44630   0.09726
H          H       0.07720   0.21023   0.49439   0.10558
H          H       0.29618   0.24403   0.38095   0.10904
H          H       0.31626   0.22878   0.32144   0.12608
H          H       0.38929   0.97275   0.33776   0.11100
H          H       0.38197   0.98940   0.39789   0.10707
H          H       0.12056   0.32632   0.88066   0.10957
H          H       0.02744   0.27631   0.92581   0.09505
H          H       0.76907   0.19838   0.85258   0.12671
H          H       0.86384   0.24374   0.80831   0.09753
H          H       0.77403   0.36057   0.89485   0.11058
H          H       0.65934   0.45957   0.91770   0.10516
H          H       0.58670   0.42455   0.96878   0.09787
H          H       0.63287   0.29327   0.99800   0.09916
H          H       0.93363   0.08550   0.89604   0.11592
H          H       0.96216   0.94660   0.92090   0.09593
H          H       0.90076   0.91451   0.97406   0.09754
H          H       0.80530   0.01900   0.00145   0.09879
H          H       0.56566   0.12619   0.96153   0.10557
H          H       0.38322   0.09065   0.96626   0.09706
H          H       0.33254   0.06956   0.02194   0.10257
H          H       0.46381   0.08059   0.07236   0.11801
H          H       0.91627   0.21678   0.01534   0.10699
H          H       0.04603   0.23574   0.06593   0.09885
H          H       0.00289   0.19578   0.12113   0.11105
H          H       0.82973   0.13929   0.12558   0.11851
H          H       0.60917   0.97009   0.09499   0.10173
H          H       0.57567   0.92827   0.15035   0.10183
H          H       0.62474   0.17772   0.18500   0.12699
H          H       0.66648   0.21863   0.13010   0.10824
H          H       0.34053   0.81580   0.30631   0.10637
H          H       0.24599   0.75861   0.34916   0.12098
H          H       0.53070   0.76184   0.41964   0.09771
H          H       0.62558   0.81987   0.37635   0.10743
H          H       0.26576   0.88186   0.39422   0.10811
H          H       0.15804   0.97702   0.42135   0.09986
H          H       0.09041   0.93396   0.47255   0.10177
H          H       0.13571   0.79736   0.49731   0.09987
H          H       0.29861   0.52318   0.49152   0.09619
H          H       0.39542   0.42382   0.46204   0.09556
H          H       0.45847   0.46502   0.41005   0.09703
H          H       0.42862   0.60647   0.38814   0.11823
H          H       0.06113   0.63107   0.45905   0.10585
H          H       0.88293   0.59184   0.46732   0.09782
H          H       0.84364   0.57023   0.52441   0.10222
H          H       0.98169   0.58574   0.57285   0.11580
H          H       0.35574   0.64328   0.61908   0.11773
H          H       0.52894   0.69107   0.61054   0.10858
H          H       0.56271   0.72525   0.55370   0.09713
H          H       0.42280   0.71024   0.50562   0.10552
H          H       0.20416   0.74404   0.61911   0.10892
H          H       0.18337   0.72898   0.67855   0.12560
H          H       0.11042   0.47287   0.66226   0.11035
H          H       0.11827   0.48939   0.60219   0.10759
H          H       0.37946   0.82632   0.11935   0.10983
H          H       0.47256   0.77632   0.07419   0.09539
H          H       0.73096   0.69838   0.14741   0.12667
H          H       0.63624   0.74375   0.19168   0.09752
H          H       0.72594   0.86052   0.10514   0.11036
H          H       0.84065   0.95955   0.08230   0.10503
H          H       0.91331   0.92454   0.03122   0.09790
H          H       0.86713   0.79327   0.00199   0.09911
H          H       0.56637   0.58552   0.10395   0.11602
H          H       0.53785   0.44661   0.07910   0.09584
H          H       0.59923   0.41450   0.02595   0.09759
H          H       0.69468   0.51899   0.99854   0.09886
H          H       0.93438   0.62619   0.03850   0.10569
H          H       0.11683   0.59066   0.03373   0.09668
H          H       0.16746   0.56954   0.97804   0.10258
H          H       0.03615   0.58061   0.92764   0.11796
H          H       0.58362   0.71679   0.98466   0.10679
H          H       0.45392   0.73573   0.93404   0.09930
H          H       0.49708   0.69575   0.87886   0.11138
H          H       0.67028   0.63928   0.87443   0.11885
H          H       0.89086   0.47045   0.90518   0.10159
H          H       0.92481   0.42823   0.84994   0.10172
H          H       0.87600   0.67778   0.81516   0.12697
H          H       0.83364   0.71850   0.86999   0.10782
C          C       0.98902   0.67771   0.33866  -0.04281
C          C       0.88197   0.69473   0.33127  -0.08626
C          C       0.82851   0.72630   0.35550  -0.13361
C          C       0.88149   0.74124   0.38762   0.07110
C          C       0.98925   0.72502   0.39489  -0.15049
C          C       0.04249   0.69323   0.37071  -0.08901
C          C       0.82722   0.77145   0.41467  -0.00620
C          C       0.84484   0.85253   0.42696   0.02336
C          C       0.80587   0.87722   0.45666   0.03021
C          C       0.74981   0.82060   0.47326  -0.02870
C          C       0.72476   0.74189   0.45951   0.02556
C          C       0.76306   0.71728   0.42963   0.02493
C          C       0.73743   0.63673   0.41669  -0.13021
C          C       0.67709   0.58375   0.43180  -0.08260
C          C       0.63966   0.60791   0.46115  -0.07976
C          C       0.66403   0.68425   0.47477  -0.13751
C          C       0.82682   0.95887   0.46890  -0.14313
C          C       0.88036   0.01408   0.45243  -0.08572
C          C       0.91660   0.99049   0.42284  -0.08590
C          C       0.90018   0.91179   0.41065  -0.11268
C          C       0.72567   0.84149   0.50666   0.00096
C          C       0.80594   0.83166   0.53428   0.02050
C          C       0.78513   0.84856   0.56727   0.01941
C          C       0.68344   0.87289   0.57216  -0.00971
C          C       0.60401   0.88456   0.54439   0.01865
C          C       0.62583   0.86899   0.51130   0.01858
C          C       0.54379   0.87927   0.48387  -0.11621
C          C       0.44462   0.90116   0.48848  -0.07168
C          C       0.42253   0.91405   0.52086  -0.06688
C          C       0.49995   0.90587   0.54803  -0.11385
C          C       0.86928   0.84126   0.59428  -0.12422
C          C       0.96672   0.81530   0.58944  -0.07866
C          C       0.98593   0.79627   0.55719  -0.07804
C          C       0.90776   0.80450   0.53033  -0.12040
C          C       0.66301   0.88231   0.60651   0.06060
C          C       0.68070   0.81480   0.62840  -0.14403
C          C       0.67126   0.82328   0.66163  -0.10128
C          C       0.64871   0.90060   0.67412  -0.00124
C          C       0.62820   0.96758   0.65236  -0.09325
C          C       0.63300   0.95815   0.61877  -0.13655
C          C       0.64900   0.91103   0.71067   0.56519
C          C       0.00253   0.70994   0.15840  -0.04571
C          C       0.95595   0.70224   0.12513  -0.09005
C          C       0.00878   0.72891   0.09999  -0.15123
C          C       0.10920   0.76324   0.10760   0.07428
C          C       0.15421   0.77342   0.14083  -0.14195
C          C       0.10079   0.74723   0.16596  -0.08716
C          C       0.16465   0.78793   0.07997  -0.00515
C          C       0.14904   0.86730   0.06596   0.02354
C          C       0.18864   0.88689   0.03578   0.03019
C          C       0.24653   0.82760   0.02103  -0.03292
C          C       0.27088   0.75114   0.03694   0.02871
C          C       0.22946   0.73110   0.06680   0.02274
C          C       0.25601   0.65355   0.08246  -0.12373
C          C       0.32017   0.59877   0.06982  -0.08398
C          C       0.36055   0.61835   0.04047  -0.08218
C          C       0.33562   0.69174   0.02436  -0.13959
C          C       0.09463   0.92947   0.08105  -0.11192
C          C       0.07881   0.00650   0.06721  -0.08905
C          C       0.11426   0.02482   0.03695  -0.08493
C          C       0.16724   0.96670   0.02165  -0.14522
C          C       0.27790   0.84496   0.98817   0.00290
C          C       0.20420   0.83217   0.95904   0.02433
C          C       0.23078   0.85187   0.92691   0.01701
C          C       0.33242   0.88073   0.92427  -0.00504
C          C       0.40759   0.88948   0.95338   0.01737
C          C       0.37935   0.87300   0.98559   0.01707
C          C       0.45684   0.88328   0.01427  -0.11429
C          C       0.55830   0.90346   0.01164  -0.07114
C          C       0.58691   0.91616   0.98010  -0.06881
C          C       0.51335   0.91008   0.95179  -0.10876
C          C       0.10280   0.80014   0.96062  -0.12119
C          C       0.03044   0.78953   0.93234  -0.07385
C          C       0.05497   0.81187   0.90103  -0.08238
C          C       0.15215   0.84290   0.89847  -0.12046
C          C       0.35908   0.90265   0.89149   0.04793
C          C       0.38689   0.98430   0.88534  -0.13325
C          C       0.40629   0.00780   0.85420  -0.10830
C          C       0.40234   0.94999   0.82852   0.00675
C          C       0.37763   0.86787   0.83461  -0.11043
C          C       0.35472   0.84491   0.86559  -0.13989
C          C       0.42510   0.98015   0.79548   0.62272
C          C       0.04721   0.64660   0.31239   0.58723
C          C       0.95119   0.67282   0.18521   0.59257
C          C       0.51100   0.17773   0.66133  -0.04291
C          C       0.61806   0.19473   0.66873  -0.08609
C          C       0.67152   0.22631   0.64449  -0.13387
C          C       0.61853   0.24125   0.61237   0.07108
C          C       0.51076   0.22505   0.60511  -0.15088
C          C       0.45753   0.19326   0.62928  -0.08868
C          C       0.67280   0.27145   0.58532  -0.00581
C          C       0.65517   0.35254   0.57303   0.02326
C          C       0.69413   0.37723   0.54333   0.03001
C          C       0.75019   0.32060   0.52672  -0.02894
C          C       0.77525   0.24189   0.54048   0.02513
C          C       0.73695   0.21728   0.57036   0.02544
C          C       0.76258   0.13673   0.58330  -0.13057
C          C       0.82291   0.08375   0.56819  -0.08228
C          C       0.86034   0.10791   0.53884  -0.08025
C          C       0.83597   0.18425   0.52522  -0.13722
C          C       0.67318   0.45888   0.53108  -0.14313
C          C       0.61964   0.51409   0.54755  -0.08580
C          C       0.58340   0.49049   0.57715  -0.08630
C          C       0.59982   0.41180   0.58934  -0.11218
C          C       0.77431   0.34149   0.49332   0.00181
C          C       0.69404   0.33165   0.46570   0.02000
C          C       0.71484   0.34854   0.43271   0.01989
C          C       0.81651   0.37288   0.42781  -0.00989
C          C       0.89596   0.38455   0.45558   0.01902
C          C       0.87415   0.36899   0.48867   0.01829
C          C       0.95619   0.37927   0.51611  -0.11663
C          C       0.05537   0.40116   0.51149  -0.07158
C          C       0.07744   0.41406   0.47912  -0.06648
C          C       0.00002   0.40588   0.45195  -0.11427
C          C       0.63069   0.34125   0.40571  -0.12467
C          C       0.53325   0.31529   0.41055  -0.07865
C          C       0.51405   0.29626   0.44280  -0.07812
C          C       0.59221   0.30449   0.46966  -0.12000
C          C       0.83690   0.38227   0.39345   0.06065
C          C       0.81923   0.31474   0.37157  -0.14318
C          C       0.82924   0.32306   0.33838  -0.10206
C          C       0.85231   0.40021   0.32587  -0.00265
C          C       0.87226   0.46738   0.34759  -0.09047
C          C       0.86697   0.45809   0.38117  -0.13856
C          C       0.85248   0.41020   0.28931   0.56634
C          C       0.49739   0.20992   0.84159  -0.04559
C          C       0.54400   0.20222   0.87486  -0.09028
C          C       0.49121   0.22890   0.90001  -0.15111
C          C       0.39080   0.26325   0.89241   0.07420
C          C       0.34575   0.27343   0.85917  -0.14225
C          C       0.39913   0.24722   0.83404  -0.08721
C          C       0.33537   0.28793   0.92003  -0.00497
C          C       0.35097   0.36729   0.93405   0.02354
C          C       0.31138   0.38689   0.96422   0.03024
C          C       0.25349   0.32760   0.97896  -0.03332
C          C       0.22912   0.25113   0.96306   0.02881
C          C       0.27054   0.23111   0.93320   0.02266
C          C       0.24399   0.15356   0.91754  -0.12379
C          C       0.17983   0.09878   0.93019  -0.08384
C          C       0.13943   0.11836   0.95953  -0.08226
C          C       0.16436   0.19174   0.97564  -0.13942
C          C       0.40537   0.42946   0.91895  -0.11201
C          C       0.42118   0.50649   0.93279  -0.08889
C          C       0.38574   0.52482   0.96305  -0.08520
C          C       0.33277   0.46670   0.97835  -0.14511
C          C       0.22212   0.34495   0.01182   0.00345
C          C       0.29584   0.33215   0.04093   0.02353
C          C       0.26926   0.35184   0.07306   0.01675
C          C       0.16761   0.38067   0.07568  -0.00464
C          C       0.09242   0.38944   0.04659   0.01767
C          C       0.12065   0.37298   0.01438   0.01641
C          C       0.04313   0.38327   0.98570  -0.11454
C          C       0.94168   0.40346   0.98836  -0.07089
C          C       0.91307   0.41617   0.01989  -0.06919
C          C       0.98666   0.41005   0.04819  -0.10834
C          C       0.39727   0.30012   0.03937  -0.12036
C          C       0.46959   0.28953   0.06767  -0.07415
C          C       0.44504   0.31189   0.09897  -0.08294
C          C       0.34785   0.34289   0.10152  -0.11985
C          C       0.14077   0.40255   0.10844   0.04889
C          C       0.11281   0.48414   0.11452  -0.13351
C          C       0.09347   0.50785   0.14564  -0.10768
C          C       0.09750   0.45023   0.17139   0.00550
C          C       0.12193   0.36801   0.16530  -0.10866
C          C       0.14487   0.34494   0.13434  -0.14165
C          C       0.07453   0.48045   0.20441   0.62399
C          C       0.45277   0.14663   0.68760   0.58702
C          C       0.54870   0.17276   0.81479   0.59264
C          C       0.01097   0.32228   0.66134  -0.04284
C          C       0.11802   0.30527   0.66873  -0.08653
C          C       0.17148   0.27369   0.64450  -0.13357
C          C       0.11850   0.25876   0.61238   0.07116
C          C       0.01074   0.27497   0.60511  -0.15036
C          C       0.95750   0.30677   0.62928  -0.08887
C          C       0.17277   0.22855   0.58533  -0.00627
C          C       0.15515   0.14746   0.57304   0.02327
C          C       0.19412   0.12277   0.54334   0.03025
C          C       0.25018   0.17940   0.52673  -0.02874
C          C       0.27523   0.25811   0.54049   0.02559
C          C       0.23693   0.28272   0.57037   0.02497
C          C       0.26256   0.36326   0.58331  -0.13033
C          C       0.32290   0.41625   0.56820  -0.08273
C          C       0.36033   0.39209   0.53885  -0.07986
C          C       0.33596   0.31575   0.52523  -0.13735
C          C       0.17317   0.04112   0.53109  -0.14318
C          C       0.11963   0.98592   0.54757  -0.08558
C          C       0.08339   0.00951   0.57716  -0.08604
C          C       0.09981   0.08821   0.58935  -0.11267
C          C       0.27432   0.15851   0.49333   0.00093
C          C       0.19405   0.16833   0.46572   0.02046
C          C       0.21486   0.15143   0.43272   0.01964
C          C       0.31655   0.12710   0.42784  -0.00973
C          C       0.39598   0.11544   0.45561   0.01856
C          C       0.37417   0.13101   0.48870   0.01858
C          C       0.45620   0.12073   0.51613  -0.11625
C          C       0.55537   0.09884   0.51152  -0.07176
C          C       0.57746   0.08595   0.47914  -0.06733
C          C       0.50004   0.09413   0.45197  -0.11353
C          C       0.13071   0.15874   0.40572  -0.12439
C          C       0.03327   0.18470   0.41056  -0.07870
C          C       0.01406   0.20373   0.44281  -0.07790
C          C       0.09223   0.19550   0.46967  -0.12058
C          C       0.33698   0.11769   0.39349   0.06065
C          C       0.31929   0.18520   0.37159  -0.14434
C          C       0.32873   0.17672   0.33837  -0.10098
C          C       0.35128   0.09940   0.32588  -0.00162
C          C       0.37179   0.03241   0.34763  -0.09302
C          C       0.36699   0.04185   0.38123  -0.13664
C          C       0.35099   0.08897   0.28933   0.56521
C          C      -0.00254   0.29006   0.84159  -0.04569
C          C       0.04404   0.29776   0.87487  -0.09045
C          C       0.99121   0.27109   0.90001  -0.15110
C          C       0.89080   0.23676   0.89240   0.07412
C          C       0.84578   0.22657   0.85916  -0.14172
C          C       0.89920   0.25277   0.83404  -0.08706
C          C       0.83534   0.21207   0.92003  -0.00523
C          C       0.85095   0.13270   0.93404   0.02356
C          C       0.81135   0.11311   0.96422   0.03029
C          C       0.75346   0.17239   0.97897  -0.03290
C          C       0.72911   0.24886   0.96305   0.02859
C          C       0.77053   0.26889   0.93320   0.02295
C          C       0.74398   0.34645   0.91754  -0.12372
C          C       0.67982   0.40123   0.93018  -0.08404
C          C       0.63944   0.38164   0.95952  -0.08221
C          C       0.66437   0.30826   0.97564  -0.13964
C          C       0.90536   0.07052   0.91895  -0.11194
C          C       0.92118   0.99350   0.93279  -0.08890
C          C       0.88573   0.97518   0.96305  -0.08499
C          C       0.83275   0.03330   0.97835  -0.14523
C          C       0.72209   0.15504   0.01183   0.00274
C          C       0.79579   0.16782   0.04095   0.02430
C          C       0.76921   0.14812   0.07308   0.01707
C          C       0.66757   0.11927   0.07572  -0.00496
C          C       0.59240   0.11051   0.04662   0.01732
C          C       0.62064   0.12700   0.01441   0.01700
C          C       0.54315   0.11671   0.98573  -0.11434
C          C       0.44169   0.09654   0.98836  -0.07102
C          C       0.41308   0.08384   0.01989  -0.06867
C          C       0.48664   0.08992   0.04821  -0.10871
C          C       0.89719   0.19986   0.03938  -0.12096
C          C       0.96955   0.21047   0.06766  -0.07386
C          C       0.94502   0.18812   0.09897  -0.08258
C          C       0.84785   0.15709   0.10153  -0.12043
C          C       0.64091   0.09735   0.10851   0.04800
C          C       0.61310   0.01570   0.11465  -0.13318
C          C       0.59371   0.99220   0.14580  -0.10816
C          C       0.59766   0.05001   0.17148   0.00660
C          C       0.62236   0.13213   0.16538  -0.11046
C          C       0.64527   0.15509   0.13440  -0.14002
C          C       0.57489   0.01984   0.20452   0.62264
C          C       0.95278   0.35339   0.68760   0.58698
C          C       0.04880   0.32718   0.81479   0.59243
C          C       0.48899   0.82227   0.33866  -0.04294
C          C       0.38194   0.80526   0.33127  -0.08579
C          C       0.32847   0.77369   0.35550  -0.13379
C          C       0.38146   0.75874   0.38763   0.07099
C          C       0.48923   0.77494   0.39489  -0.15090
C          C       0.54246   0.80674   0.37072  -0.08875
C          C       0.32719   0.72854   0.41468  -0.00582
C          C       0.34482   0.64746   0.42696   0.02323
C          C       0.30586   0.62277   0.45667   0.02993
C          C       0.24980   0.67940   0.47327  -0.02877
C          C       0.22474   0.75810   0.45952   0.02517
C          C       0.26304   0.78271   0.42963   0.02545
C          C       0.23741   0.86326   0.41670  -0.13045
C          C       0.17708   0.91625   0.43181  -0.08243
C          C       0.13965   0.89209   0.46116  -0.07997
C          C       0.16402   0.81575   0.47478  -0.13744
C          C       0.32681   0.54111   0.46891  -0.14326
C          C       0.38035   0.48591   0.45244  -0.08551
C          C       0.41659   0.50950   0.42285  -0.08630
C          C       0.40017   0.58820   0.41066  -0.11209
C          C       0.22568   0.65851   0.50668   0.00185
C          C       0.30595   0.66835   0.53429   0.01992
C          C       0.28515   0.65146   0.56729   0.01983
C          C       0.18349   0.62712   0.57219  -0.00998
C          C       0.10403   0.61545   0.54442   0.01901
C          C       0.12584   0.63100   0.51132   0.01823
C          C       0.04380   0.62073   0.48389  -0.11655
C          C       0.94462   0.59884   0.48850  -0.07154
C          C       0.92255   0.58593   0.52088  -0.06657
C          C      -0.00003   0.59412   0.54805  -0.11403
C          C       0.36930   0.65875   0.59429  -0.12436
C          C       0.46674   0.68470   0.58945  -0.07892
C          C       0.48594   0.70374   0.55720  -0.07812
C          C       0.40778   0.69551   0.53034  -0.12000
C          C       0.16309   0.61772   0.60655   0.06071
C          C       0.18076   0.68525   0.62843  -0.14331
C          C       0.17075   0.67694   0.66162  -0.10210
C          C       0.14769   0.59979   0.67413  -0.00261
C          C       0.12774   0.53261   0.65241  -0.09049
C          C       0.13302   0.54190   0.61883  -0.13828
C          C       0.14753   0.58979   0.71069   0.56642
C          C       0.50260   0.79008   0.15841  -0.04574
C          C       0.45600   0.79778   0.12514  -0.08994
C          C       0.50878   0.77110   0.09999  -0.15111
C          C       0.60919   0.73675   0.10759   0.07435
C          C       0.65424   0.72657   0.14083  -0.14259
C          C       0.60086   0.75278   0.16596  -0.08722
C          C       0.66462   0.71207   0.07996  -0.00508
C          C       0.64903   0.63270   0.06595   0.02374
C          C       0.68861   0.61310   0.03577   0.03026
C          C       0.74650   0.67240   0.02103  -0.03322
C          C       0.77087   0.74886   0.03694   0.02868
C          C       0.72945   0.76889   0.06679   0.02283
C          C       0.75600   0.84643   0.08245  -0.12405
C          C       0.82016   0.90121   0.06981  -0.08385
C          C       0.86056   0.88164   0.04047  -0.08216
C          C       0.83563   0.80826   0.02435  -0.13943
C          C       0.59462   0.57053   0.08105  -0.11235
C          C       0.57881   0.49351   0.06721  -0.08867
C          C       0.61425   0.47518   0.03695  -0.08511
C          C       0.66722   0.53329   0.02164  -0.14511
C          C       0.77787   0.65505   0.98818   0.00341
C          C       0.70415   0.66785   0.95906   0.02386
C          C       0.73073   0.64815   0.92694   0.01670
C          C       0.83238   0.61933   0.92431  -0.00457
C          C       0.90757   0.61055   0.95341   0.01754
C          C       0.87934   0.62702   0.98561   0.01634
C          C       0.95686   0.61672   0.01429  -0.11441
C          C       0.05831   0.59653   0.01164  -0.07100
C          C       0.08692   0.58383   0.98010  -0.06921
C          C       0.01333   0.58994   0.95180  -0.10838
C          C       0.60273   0.69987   0.96062  -0.12058
C          C       0.53040   0.71046   0.93233  -0.07412
C          C       0.55495   0.68811   0.90103  -0.08227
C          C       0.65214   0.65710   0.89847  -0.12036
C          C       0.85921   0.59745   0.89156   0.04879
C          C       0.88718   0.51586   0.88548  -0.13363
C          C       0.90655   0.49216   0.85436  -0.10768
C          C       0.90252   0.54980   0.82861   0.00588
C          C       0.87808   0.63201   0.83470  -0.10898
C          C       0.85511   0.65507   0.86566  -0.14160
C          C       0.92550   0.51957   0.79559   0.62394
C          C       0.54722   0.85337   0.31240   0.58691
C          C       0.45129   0.82724   0.18521   0.59296
Cl         Cl      0.73021   0.70184   0.24978  -0.71254
Cl         Cl      0.76993   0.20172   0.75023  -0.71198
Cl         Cl      0.26979   0.29816   0.75021  -0.71264
Cl         Cl      0.23003   0.79831   0.24976  -0.71200
O          O       0.14635   0.64563   0.31800  -0.61974
O          O       0.61331   0.85337   0.72589  -0.46284
O          O       0.68713   0.97840   0.72396  -0.64697
O          O       0.85923   0.64506   0.17852  -0.59897
O          O       0.00544   0.66725   0.21453  -0.73018
O          O       0.34871   0.01206   0.77597  -0.67351
O          O       0.51832   0.97525   0.79041  -0.62576
O          O       0.99512   0.62455   0.28412  -0.71091
O          O       0.35364   0.14563   0.68198  -0.61914
O          O       0.89008   0.35311   0.27427  -0.46318
O          O       0.81302   0.47701   0.27590  -0.64549
O          O       0.64063   0.14496   0.82150  -0.59953
O          O       0.49450   0.16721   0.78546  -0.72978
O          O       0.15094   0.51242   0.22390  -0.67437
O          O       0.98137   0.47520   0.20953  -0.62508
O          O       0.50484   0.12458   0.71588  -0.71118
O          O       0.85364   0.35436   0.68200  -0.61896
O          O       0.38670   0.14662   0.27411  -0.46294
O          O       0.31286   0.02160   0.27604  -0.64658
O          O       0.14076   0.35493   0.82148  -0.59937
O          O       0.99455   0.33275   0.78547  -0.72964
O          O       0.65128   0.98792   0.22403  -0.67390
O          O       0.48168   0.02475   0.20959  -0.62547
O          O       0.00487   0.37545   0.71588  -0.71138
O          O       0.64635   0.85436   0.31802  -0.61959
O          O       0.10996   0.64690   0.72573  -0.46327
O          O       0.18697   0.52297   0.72410  -0.64568
O          O       0.35936   0.85504   0.17850  -0.59914
O          O       0.50549   0.83279   0.21453  -0.73038
O          O       0.84909   0.48761   0.77609  -0.67389
O          O       0.01867   0.52480   0.79047  -0.62556
O          O       0.49515   0.87542   0.28412  -0.71072

