data_crystal

_audit_creation_method 'AiiDA-DDEC plugin'

_cell_length_a        18.94215
_cell_length_b        26.87628
_cell_length_c        26.87639

_cell_angle_alpha     119.97693
_cell_angle_beta     90.00000
_cell_angle_gamma     89.99955

_symmetry_space_group_name_Hall 'P 1'
_symmetry_space_group_name_H-M  'P 1'

loop_
_symmetry_equiv_pos_as_xyz
 'x,y,z'

loop_
_atom_site_label
_atom_site_type_symbol
_atom_site_fract_x
_atom_site_fract_y
_atom_site_fract_z
_atom_site_charge
Zn         Zn      0.41254   0.33253   0.43979   0.65997
Zn         Zn      0.41253   0.10743   0.66756   0.66014
Zn         Zn      0.41256   0.56019   0.89269   0.66000
Zn         Zn      0.91238   0.66748   0.56018   0.66010
Zn         Zn      0.91237   0.89250   0.33236   0.65931
Zn         Zn      0.91236   0.43985   0.10739   0.65960
Zn         Zn      0.58746   0.66756   0.10743   0.65989
Zn         Zn      0.58743   0.89269   0.56019   0.65999
Zn         Zn      0.58745   0.43980   0.33252   0.65998
Zn         Zn      0.08761   0.33236   0.89250   0.65915
Zn         Zn      0.08763   0.10739   0.43985   0.65967
Zn         Zn      0.08760   0.56018   0.66747   0.66002
Zn         Zn      0.58745   0.66748   0.56020   0.65997
Zn         Zn      0.58746   0.89257   0.33244   0.65989
Zn         Zn      0.58743   0.43981   0.10731   0.66002
Zn         Zn      0.08760   0.33253   0.43982   0.66006
Zn         Zn      0.08762   0.10750   0.66764   0.65913
Zn         Zn      0.08762   0.56015   0.89261   0.65966
Zn         Zn      0.41253   0.33244   0.89257   0.66017
Zn         Zn      0.41256   0.10731   0.43981   0.66001
Zn         Zn      0.41254   0.56021   0.66747   0.65997
Zn         Zn      0.91237   0.66764   0.10750   0.65927
Zn         Zn      0.91236   0.89262   0.56015   0.65967
Zn         Zn      0.91238   0.43982   0.33253   0.66008
H          H       0.57960   0.30778   0.42776   0.12062
H          H       0.69211   0.25723   0.42239   0.09791
H          H       0.50357   0.34928   0.54681   0.12424
H          H       0.42832   0.21915   0.31060   0.11725
H          H       0.46484   0.16285   0.20757   0.10183
H          H       0.32361   0.31577   0.33195   0.12386
H          H       0.57956   0.12011   0.69222   0.12074
H          H       0.69208   0.16518   0.74280   0.09815
H          H       0.50354   0.19733   0.65079   0.12382
H          H       0.42825   0.09139   0.78064   0.11686
H          H       0.46483   0.04475   0.83706   0.10142
H          H       0.32361   0.01619   0.68421   0.12394
H          H       0.57952   0.57203   0.87987   0.12053
H          H       0.69206   0.57761   0.83486   0.09803
H          H       0.50345   0.45306   0.80237   0.12424
H          H       0.42826   0.68943   0.90862   0.11758
H          H       0.46490   0.79247   0.95536   0.10202
H          H       0.32363   0.66804   0.98385   0.12381
H          H       0.07962   0.69224   0.57226   0.12005
H          H       0.19215   0.74279   0.57764   0.09775
H          H       0.00513   0.65054   0.45343   0.12435
H          H       0.92819   0.78064   0.68924   0.11748
H          H       0.96477   0.83695   0.79225   0.10196
H          H       0.82343   0.68477   0.66830   0.12317
H          H       0.07957   0.87990   0.30776   0.12031
H          H       0.19208   0.83483   0.25719   0.09842
H          H       0.00506   0.80307   0.34939   0.12381
H          H       0.92814   0.90868   0.21958   0.11739
H          H       0.96477   0.95527   0.16314   0.10179
H          H       0.82342   0.98353   0.31525   0.12336
H          H       0.07955   0.42794   0.12013   0.12017
H          H       0.19210   0.42237   0.16514   0.09804
H          H       0.00491   0.54661   0.19716   0.12408
H          H       0.92814   0.31072   0.09133   0.11736
H          H       0.96485   0.20769   0.04460   0.10159
H          H       0.82346   0.33174   0.01644   0.12328
H          H       0.42043   0.69223   0.12011   0.12073
H          H       0.30791   0.74280   0.16518   0.09854
H          H       0.49645   0.65080   0.19733   0.12406
H          H       0.57174   0.78064   0.09139   0.11672
H          H       0.53516   0.83706   0.04476   0.10153
H          H       0.67638   0.68422   0.01619   0.12417
H          H       0.42046   0.87987   0.57203   0.12072
H          H       0.30793   0.83486   0.57761   0.09853
H          H       0.49654   0.80237   0.45306   0.12433
H          H       0.57172   0.90862   0.68942   0.11709
H          H       0.53508   0.95536   0.79247   0.10156
H          H       0.67635   0.98385   0.66804   0.12428
H          H       0.42039   0.42776   0.30778   0.12057
H          H       0.30788   0.42239   0.25723   0.09820
H          H       0.49642   0.54681   0.34928   0.12449
H          H       0.57167   0.31060   0.21915   0.11715
H          H       0.53516   0.20757   0.16285   0.10172
H          H       0.67639   0.33195   0.31577   0.12396
H          H       0.92042   0.30776   0.87990   0.12035
H          H       0.80790   0.25719   0.83483   0.09878
H          H       0.99492   0.34939   0.80306   0.12403
H          H       0.07184   0.21958   0.90868   0.11713
H          H       0.03521   0.16314   0.95526   0.10174
H          H       0.17657   0.31525   0.98352   0.12372
H          H       0.92044   0.12013   0.42794   0.12021
H          H       0.80789   0.16514   0.42237   0.09832
H          H       0.99508   0.19716   0.54661   0.12418
H          H       0.07185   0.09133   0.31072   0.11719
H          H       0.03514   0.04460   0.20769   0.10162
H          H       0.17653   0.01644   0.33174   0.12344
H          H       0.92036   0.57226   0.69224   0.12025
H          H       0.80783   0.57764   0.74279   0.09851
H          H       0.99485   0.45343   0.65054   0.12447
H          H       0.07179   0.68925   0.78064   0.11695
H          H       0.03521   0.79225   0.83695   0.10171
H          H       0.17655   0.66830   0.68477   0.12351
H          H       0.42039   0.69222   0.57224   0.12057
H          H       0.30787   0.74277   0.57761   0.09823
H          H       0.49642   0.65072   0.45319   0.12458
H          H       0.57167   0.78085   0.68940   0.11711
H          H       0.53515   0.83715   0.79243   0.10172
H          H       0.67638   0.68423   0.66805   0.12410
H          H       0.42043   0.87990   0.30778   0.12083
H          H       0.30791   0.83482   0.25720   0.09862
H          H       0.49645   0.80267   0.34921   0.12393
H          H       0.57173   0.90861   0.21936   0.11661
H          H       0.53516   0.95525   0.16294   0.10125
H          H       0.67637   0.98381   0.31578   0.12437
H          H       0.42047   0.42797   0.12013   0.12055
H          H       0.30793   0.42239   0.16514   0.09838
H          H       0.49654   0.54695   0.19763   0.12433
H          H       0.57172   0.31058   0.09138   0.11728
H          H       0.53509   0.20753   0.04464   0.10173
H          H       0.67635   0.33196   0.01615   0.12403
H          H       0.92036   0.30776   0.42774   0.12019
H          H       0.80784   0.25721   0.42236   0.09841
H          H       0.99485   0.34946   0.54657   0.12445
H          H       0.07180   0.21936   0.31076   0.11713
H          H       0.03521   0.16305   0.20775   0.10172
H          H       0.17655   0.31523   0.33170   0.12344
H          H       0.92042   0.12010   0.69224   0.12037
H          H       0.80790   0.16517   0.74281   0.09878
H          H       0.99493   0.19694   0.65061   0.12396
H          H       0.07185   0.09132   0.78042   0.11705
H          H       0.03522   0.04473   0.83686   0.10168
H          H       0.17657   0.01648   0.68475   0.12372
H          H       0.92043   0.57206   0.87987   0.12013
H          H       0.80789   0.57763   0.83486   0.09845
H          H       0.99508   0.45339   0.80284   0.12425
H          H       0.07185   0.68929   0.90867   0.11702
H          H       0.03513   0.79231   0.95539   0.10151
H          H       0.17653   0.66826   0.98356   0.12352
H          H       0.57956   0.30778   0.87989   0.12068
H          H       0.69208   0.25720   0.83482   0.09805
H          H       0.50353   0.34921   0.80267   0.12385
H          H       0.42825   0.21936   0.90861   0.11691
H          H       0.46483   0.16294   0.95524   0.10172
H          H       0.32361   0.31578   0.98381   0.12381
H          H       0.57952   0.12013   0.42797   0.12056
H          H       0.69206   0.16514   0.42239   0.09813
H          H       0.50345   0.19763   0.54694   0.12423
H          H       0.42827   0.09138   0.31058   0.11742
H          H       0.46490   0.04464   0.20753   0.10176
H          H       0.32364   0.01615   0.33196   0.12395
H          H       0.57959   0.57224   0.69222   0.12062
H          H       0.69211   0.57761   0.74277   0.09779
H          H       0.50357   0.45319   0.65071   0.12423
H          H       0.42831   0.68940   0.78085   0.11733
H          H       0.46483   0.79243   0.83715   0.10184
H          H       0.32360   0.66805   0.68423   0.12375
H          H       0.07957   0.69224   0.12010   0.12021
H          H       0.19208   0.74281   0.16517   0.09838
H          H       0.00506   0.65061   0.19694   0.12391
H          H       0.92814   0.78042   0.09132   0.11754
H          H       0.96477   0.83687   0.04474   0.10192
H          H       0.82342   0.68475   0.01648   0.12339
H          H       0.07955   0.87988   0.57206   0.12026
H          H       0.19210   0.83487   0.57763   0.09801
H          H       0.00491   0.80284   0.45339   0.12406
H          H       0.92813   0.90867   0.68928   0.11757
H          H       0.96485   0.95540   0.79231   0.10162
H          H       0.82345   0.98356   0.66826   0.12325
H          H       0.07963   0.42774   0.30776   0.12011
H          H       0.19215   0.42236   0.25721   0.09792
H          H       0.00513   0.54658   0.34946   0.12430
H          H       0.92819   0.31076   0.21936   0.11728
H          H       0.96478   0.20775   0.16305   0.10179
H          H       0.82344   0.33170   0.31523   0.12324
H          H       0.35142   0.22275   0.44534   0.08473
H          H       0.35147   0.22267   0.77733   0.08526
H          H       0.35141   0.55466   0.77725   0.08497
H          H       0.85146   0.77721   0.55457   0.08517
H          H       0.85148   0.77729   0.22272   0.08508
H          H       0.85146   0.44543   0.22279   0.08496
H          H       0.64852   0.77733   0.22267   0.08500
H          H       0.64857   0.77725   0.55466   0.08413
H          H       0.64857   0.44534   0.22275   0.08430
H          H       0.14851   0.22272   0.77728   0.08501
H          H       0.14853   0.22279   0.44543   0.08460
H          H       0.14853   0.55457   0.77721   0.08441
H          H       0.49999   0.42617   0.42617   0.08450
H          H       0.49999  -0.00017   0.57357   0.08445
H          H       0.50000   0.57357  -0.00017   0.08447
H          H      -0.00001   0.57362   0.57362   0.08505
H          H       0.00004   0.00021   0.42666   0.08463
H          H      -0.00005   0.42666   0.00021   0.08472
H          H       0.49999   0.57384   0.57383   0.08447
H          H       0.50000   0.00017   0.42643   0.08466
H          H       0.50000   0.42643   0.00017   0.08469
H          H      -0.00000   0.42638   0.42638   0.08504
H          H      -0.00005  -0.00021   0.57334   0.08459
H          H       0.00004   0.57334  -0.00021   0.08451
C          C       0.51652   0.24237   0.43186   0.12859
C          C       0.57959   0.26753   0.42818  -0.17755
C          C       0.64215   0.23874   0.42496  -0.10308
C          C       0.48015   0.39026   0.55787   0.00237
C          C       0.47936   0.29655   0.32204   0.13035
C          C       0.45881   0.23882   0.29065  -0.17660
C          C       0.47984   0.20778   0.23330  -0.10623
C          C       0.28684   0.31843   0.36404  -0.00673
C          C       0.51653   0.18954   0.75766   0.13040
C          C       0.57958   0.16072   0.73248  -0.17807
C          C       0.64212   0.18625   0.76127  -0.10307
C          C       0.48008   0.16751   0.60980   0.00338
C          C       0.47932   0.02548   0.70329   0.13225
C          C       0.45877   0.05180   0.76102  -0.17731
C          C       0.47982   0.02553   0.79212  -0.10571
C          C       0.28685   0.04559   0.68149  -0.00564
C          C       0.51649   0.56810   0.81043   0.12914
C          C       0.57955   0.57173   0.83926  -0.17752
C          C       0.64212   0.57501   0.81375  -0.10325
C          C       0.48012   0.44202   0.83235   0.00278
C          C       0.47938   0.67786   0.97452   0.12983
C          C       0.45879   0.70930   0.94821  -0.17648
C          C       0.47984   0.76666   0.97452  -0.10668
C          C       0.28685   0.63596   0.95443  -0.00698
C          C       0.01652   0.75762   0.56813   0.12842
C          C       0.07961   0.73248   0.57183  -0.17758
C          C       0.14217   0.76127   0.57505  -0.10295
C          C       0.98102   0.60970   0.44221   0.00270
C          C       0.97931   0.70323   0.67776   0.13223
C          C       0.95873   0.76096   0.70916  -0.17724
C          C       0.97981   0.79202   0.76651  -0.10581
C          C       0.78667   0.68183   0.63606  -0.00757
C          C       0.01651   0.81045   0.24235   0.12845
C          C       0.07956   0.83928   0.26751  -0.17706
C          C       0.14212   0.81376   0.23873  -0.10323
C          C       0.98099   0.83260   0.39026   0.00335
C          C       0.97929   0.97457   0.29694   0.13172
C          C       0.95871   0.94825   0.23921  -0.17928
C          C       0.97979   0.97449   0.20808  -0.10462
C          C       0.78667   0.95426   0.31826  -0.00735
C          C       0.01650   0.43191   0.18957   0.12822
C          C       0.07956   0.42827   0.16074  -0.17735
C          C       0.14215   0.42498   0.18624  -0.10287
C          C       0.98099   0.55787   0.16750   0.00224
C          C       0.97933   0.32234   0.02548   0.13317
C          C       0.95872   0.29086   0.05176  -0.17886
C          C       0.97982   0.23352   0.02547  -0.10474
C          C       0.78667   0.36396   0.04573  -0.00724
C          C       0.48346   0.75766   0.18954   0.13040
C          C       0.42041   0.73248   0.16072  -0.17808
C          C       0.35786   0.76127   0.18625  -0.10304
C          C       0.51991   0.60980   0.16751   0.00360
C          C       0.52067   0.70329   0.02548   0.13158
C          C       0.54122   0.76102   0.05180  -0.17722
C          C       0.52017   0.79212   0.02553  -0.10612
C          C       0.71314   0.68149   0.04559  -0.00568
C          C       0.48349   0.81044   0.56810   0.12868
C          C       0.42043   0.83926   0.57173  -0.17753
C          C       0.35786   0.81375   0.57501  -0.10275
C          C       0.51987   0.83235   0.44202   0.00311
C          C       0.52060   0.97452   0.67786   0.13002
C          C       0.54119   0.94821   0.70930  -0.17711
C          C       0.52014   0.97452   0.76666  -0.10624
C          C       0.71313   0.95443   0.63596  -0.00665
C          C       0.48347   0.43186   0.24237   0.13093
C          C       0.42040   0.42818   0.26753  -0.17822
C          C       0.35784   0.42496   0.23874  -0.10297
C          C       0.51984   0.55787   0.39026   0.00267
C          C       0.52063   0.32204   0.29655   0.13050
C          C       0.54118   0.29065   0.23882  -0.17682
C          C       0.52015   0.23330   0.20778  -0.10621
C          C       0.71315   0.36404   0.31842  -0.00638
C          C       0.98347   0.24235   0.81045   0.12889
C          C       0.92042   0.26751   0.83928  -0.17728
C          C       0.85786   0.23872   0.81375  -0.10303
C          C       0.01899   0.39026   0.83259   0.00375
C          C       0.02069   0.29694   0.97456   0.13162
C          C       0.04128   0.23921   0.94825  -0.17914
C          C       0.02020   0.20808   0.97448  -0.10491
C          C       0.21332   0.31826   0.95426  -0.00764
C          C       0.98350   0.18957   0.43191   0.12828
C          C       0.92043   0.16074   0.42826  -0.17742
C          C       0.85784   0.18624   0.42498  -0.10275
C          C       0.01900   0.16750   0.55787   0.00280
C          C       0.02067   0.02548   0.32234   0.13311
C          C       0.04127   0.05176   0.29086  -0.17887
C          C       0.02018   0.02547   0.23352  -0.10500
C          C       0.21332   0.04572   0.36395  -0.00691
C          C       0.98346   0.56813   0.75762   0.13102
C          C       0.92038   0.57183   0.73248  -0.17836
C          C       0.85781   0.57506   0.76127  -0.10287
C          C       0.01896   0.44221   0.60970   0.00291
C          C       0.02067   0.67776   0.70323   0.13191
C          C       0.04125   0.70917   0.76096  -0.17733
C          C       0.02017   0.76651   0.79202  -0.10602
C          C       0.21331   0.63606   0.68183  -0.00717
C          C       0.48347   0.75763   0.56814   0.13099
C          C       0.42040   0.73247   0.57182  -0.17846
C          C       0.35784   0.76126   0.57504  -0.10282
C          C       0.51984   0.60974   0.44213   0.00260
C          C       0.52063   0.70345   0.67796   0.13062
C          C       0.54118   0.76118   0.70935  -0.17711
C          C       0.52014   0.79222   0.76670  -0.10605
C          C       0.71315   0.68158   0.63596  -0.00653
C          C       0.48346   0.81046   0.24234   0.13044
C          C       0.42041   0.83929   0.26752  -0.17794
C          C       0.35786   0.81375   0.23873  -0.10305
C          C       0.51990   0.83249   0.39020   0.00366
C          C       0.52066   0.97452   0.29671   0.13199
C          C       0.54122   0.94820   0.23898  -0.17758
C          C       0.52017   0.97447   0.20788  -0.10571
C          C       0.71313   0.95441   0.31851  -0.00572
C          C       0.48349   0.43191   0.18957   0.12856
C          C       0.42044   0.42827   0.16074  -0.17735
C          C       0.35787   0.42499   0.18625  -0.10293
C          C       0.51987   0.55798   0.16765   0.00306
C          C       0.52061   0.32214   0.02548   0.12958
C          C       0.54119   0.29070   0.05179  -0.17670
C          C       0.52015   0.23334   0.02548  -0.10655
C          C       0.71314   0.36404   0.04557  -0.00673
C          C       0.98347   0.24238   0.43187   0.13078
C          C       0.92038   0.26752   0.42817  -0.17833
C          C       0.85781   0.23873   0.42494  -0.10293
C          C       0.01896   0.39030   0.55779   0.00293
C          C       0.02067   0.29677   0.32224   0.13199
C          C       0.04125   0.23904   0.29084  -0.17733
C          C       0.02018   0.20798   0.23349  -0.10591
C          C       0.21332   0.31817   0.36394  -0.00730
C          C       0.98347   0.18955   0.75765   0.12890
C          C       0.92042   0.16072   0.73249  -0.17726
C          C       0.85786   0.18625   0.76127  -0.10297
C          C       0.01899   0.16741   0.60974   0.00357
C          C       0.02070   0.02544   0.70306   0.13168
C          C       0.04128   0.05175   0.76079  -0.17915
C          C       0.02020   0.02551   0.79192  -0.10492
C          C       0.21332   0.04574   0.68174  -0.00781
C          C       0.98349   0.56809   0.81043   0.12823
C          C       0.92043   0.57174   0.83926  -0.17734
C          C       0.85784   0.57502   0.81376  -0.10271
C          C       0.01900   0.44213   0.83250   0.00286
C          C       0.02066   0.67766   0.97452   0.13320
C          C       0.04126   0.70914   0.94824  -0.17899
C          C       0.02017   0.76648   0.97453  -0.10476
C          C       0.21332   0.63605   0.95427  -0.00678
C          C       0.51653   0.24234   0.81046   0.13029
C          C       0.57957   0.26752   0.83928  -0.17812
C          C       0.64212   0.23873   0.81375  -0.10303
C          C       0.48008   0.39020   0.83249   0.00327
C          C       0.47932   0.29671   0.97452   0.13179
C          C       0.45877   0.23898   0.94820  -0.17693
C          C       0.47982   0.20788   0.97447  -0.10634
C          C       0.28685   0.31851   0.95441  -0.00571
C          C       0.51650   0.18957   0.43190   0.12913
C          C       0.57955   0.16074   0.42827  -0.17744
C          C       0.64212   0.18625   0.42499  -0.10302
C          C       0.48012   0.16765   0.55798   0.00281
C          C       0.47939   0.02548   0.32214   0.13013
C          C       0.45880   0.05179   0.29070  -0.17678
C          C       0.47985   0.02548   0.23334  -0.10620
C          C       0.28686   0.04557   0.36404  -0.00676
C          C       0.51652   0.56814   0.75763   0.12850
C          C       0.57959   0.57183   0.73247  -0.17746
C          C       0.64214   0.57504   0.76126  -0.10304
C          C       0.48015   0.44213   0.60974   0.00234
C          C       0.47935   0.67796   0.70345   0.13029
C          C       0.45880   0.70935   0.76118  -0.17662
C          C       0.47984   0.76670   0.79222  -0.10615
C          C       0.28684   0.63596   0.68157  -0.00670
C          C       0.01651   0.75765   0.18955   0.12871
C          C       0.07957   0.73249   0.16072  -0.17724
C          C       0.14212   0.76128   0.18625  -0.10316
C          C       0.98100   0.60974   0.16741   0.00348
C          C       0.97929   0.70307   0.02544   0.13179
C          C       0.95871   0.76080   0.05175  -0.17936
C          C       0.97979   0.79193   0.02552  -0.10461
C          C       0.78667   0.68174   0.04574  -0.00756
C          C       0.01649   0.81043   0.56809   0.12881
C          C       0.07956   0.83926   0.57174  -0.17726
C          C       0.14215   0.81376   0.57502  -0.10307
C          C       0.98099   0.83250   0.44213   0.00195
C          C       0.97932   0.97452   0.67766   0.13302
C          C       0.95872   0.94824   0.70914  -0.17900
C          C       0.97981   0.97453   0.76648  -0.10469
C          C       0.78666   0.95428   0.63605  -0.00738
C          C       0.01652   0.43187   0.24238   0.13064
C          C       0.07961   0.42817   0.26752  -0.17824
C          C       0.14218   0.42495   0.23873  -0.10300
C          C       0.98102   0.55780   0.39030   0.00265
C          C       0.97932   0.32224   0.29677   0.13211
C          C       0.95874   0.29084   0.23904  -0.17720
C          C       0.97981   0.23349   0.20798  -0.10588
C          C       0.78668   0.36394   0.31817  -0.00764
C          C       0.40821   0.22004   0.43999   0.17422
C          C       0.40825   0.21999   0.78001   0.17315
C          C       0.40821   0.56001   0.77996   0.17436
C          C       0.90823   0.77993   0.55997   0.17388
C          C       0.90824   0.77999   0.22001   0.17435
C          C       0.90823   0.44003   0.22008   0.17367
C          C       0.59174   0.78001   0.21999   0.17240
C          C       0.59178   0.77996   0.56001   0.17349
C          C       0.59178   0.43999   0.22004   0.17366
C          C       0.09175   0.22001   0.77999   0.17324
C          C       0.09176   0.22008   0.44003   0.17347
C          C       0.09175   0.55997   0.77992   0.17336
C          C       0.42174   0.45274   0.54726   0.24212
C          C       0.42173   0.09446   0.54720   0.24182
C          C       0.42173   0.45280   0.90554   0.24194
C          C       0.92073   0.54767   0.45233   0.23980
C          C       0.92079   0.90473   0.45233   0.23927
C          C       0.92079   0.54767   0.09527   0.23908
C          C       0.57826   0.54720   0.09446   0.24159
C          C       0.57826   0.90554   0.45280   0.24155
C          C       0.57825   0.54726   0.45274   0.24202
C          C       0.07919   0.45233   0.90473   0.23910
C          C       0.07920   0.09527   0.54767   0.23916
C          C       0.07925   0.45233   0.54767   0.23923
C          C       0.49999   0.38588   0.38587   0.17194
C          C       0.49993  -0.00003   0.61394   0.17472
C          C       0.50006   0.61395  -0.00003   0.17399
C          C      -0.00001   0.61391   0.61391   0.17312
C          C      -0.00003   0.00006   0.38627   0.17318
C          C       0.00003   0.38627   0.00006   0.17326
C          C       0.49999   0.61413   0.61413   0.17195
C          C       0.50006   0.00003   0.38606   0.17432
C          C       0.49993   0.38606   0.00003   0.17394
C          C      -0.00000   0.38609   0.38609   0.17325
C          C       0.00003  -0.00006   0.61373   0.17320
C          C      -0.00003   0.61373  -0.00006   0.17345
C          C       0.25015   0.32526   0.44289   0.23900
C          C       0.25015   0.11755   0.67459   0.24034
C          C       0.25017   0.55713   0.88241   0.23891
C          C       0.74984   0.67474   0.55711   0.23898
C          C       0.74983   0.88245   0.32541   0.24035
C          C       0.74982   0.44287   0.11759   0.23876
C          C       0.74984   0.67459   0.11756   0.24031
C          C       0.74982   0.88241   0.55713   0.23876
C          C       0.74984   0.44289   0.32526   0.23902
C          C       0.25015   0.32541   0.88244   0.24042
C          C       0.25017   0.11759   0.44287   0.23881
C          C       0.25015   0.55711   0.67474   0.23906
N          N       0.44672   0.26063   0.43694  -0.35933
N          N       0.44285   0.39737   0.51840  -0.30663
N          N       0.46666   0.33851   0.37886  -0.35818
N          N       0.30987   0.32300   0.41439  -0.30876
N          N       0.44673   0.17638   0.73942  -0.35922
N          N       0.44280   0.12089   0.60258  -0.30749
N          N       0.46662   0.04034   0.66131  -0.36006
N          N       0.30988   0.09135   0.67688  -0.31042
N          N       0.44668   0.56301   0.82360  -0.35962
N          N       0.44288   0.48156   0.87891  -0.30740
N          N       0.46673   0.62102   0.95964  -0.35914
N          N       0.30988   0.58563   0.90864  -0.30899
N          N       0.94672   0.73934   0.56304  -0.35904
N          N       0.94260   0.60285   0.48137  -0.30694
N          N       0.96660   0.66126   0.62094  -0.35944
N          N       0.80963   0.67740   0.58573  -0.30940
N          N       0.94671   0.82360   0.26059  -0.35835
N          N       0.94263   0.87865   0.39715  -0.30679
N          N       0.96657   0.95971   0.33893  -0.35897
N          N       0.80963   0.90837   0.32272  -0.30951
N          N       0.94668   0.43702   0.17643  -0.35881
N          N       0.94265   0.51867   0.12148  -0.30681
N          N       0.96663   0.37918   0.04036  -0.35987
N          N       0.80961   0.41427   0.09164  -0.30878
N          N       0.55326   0.73942   0.17638  -0.35942
N          N       0.55719   0.60258   0.12089  -0.30726
N          N       0.53337   0.66131   0.04034  -0.36007
N          N       0.69011   0.67688   0.09135  -0.30956
N          N       0.55330   0.82360   0.56301  -0.35955
N          N       0.55710   0.87891   0.48156  -0.30757
N          N       0.53326   0.95964   0.62102  -0.35973
N          N       0.69010   0.90865   0.58563  -0.30801
N          N       0.55327   0.43694   0.26063  -0.35989
N          N       0.55713   0.51840   0.39737  -0.30689
N          N       0.53333   0.37886   0.33851  -0.35840
N          N       0.69012   0.41439   0.32299  -0.30824
N          N       0.05327   0.26059   0.82360  -0.35861
N          N       0.05735   0.39715   0.87865  -0.30693
N          N       0.03342   0.33893   0.95970  -0.35928
N          N       0.19035   0.32272   0.90837  -0.30823
N          N       0.05331   0.17643   0.43702  -0.35912
N          N       0.05735   0.12147   0.51866  -0.30705
N          N       0.03336   0.04036   0.37918  -0.36013
N          N       0.19038   0.09164   0.41427  -0.30854
N          N       0.05326   0.56304   0.73934  -0.35997
N          N       0.05738   0.48137   0.60284  -0.30677
N          N       0.03339   0.62094   0.66126  -0.36013
N          N       0.19035   0.58573   0.67740  -0.30830
N          N       0.55327   0.73937   0.56306  -0.36000
N          N       0.55713   0.60263   0.48160  -0.30678
N          N       0.53332   0.66149   0.62114  -0.35846
N          N       0.69012   0.67701   0.58561  -0.30799
N          N       0.55325   0.82362   0.26058  -0.35914
N          N       0.55719   0.87911   0.39742  -0.30723
N          N       0.53337   0.95966   0.33869  -0.36026
N          N       0.69011   0.90865   0.32312  -0.30950
N          N       0.55331   0.43700   0.17640  -0.35965
N          N       0.55710   0.51844   0.12109  -0.30771
N          N       0.53326   0.37898   0.04036  -0.35935
N          N       0.69011   0.41437   0.09136  -0.30825
N          N       0.05327   0.26066   0.43696  -0.35977
N          N       0.05739   0.39716   0.51863  -0.30686
N          N       0.03339   0.33874   0.37906  -0.36007
N          N       0.19036   0.32260   0.41427  -0.30847
N          N       0.05327   0.17640   0.73941  -0.35852
N          N       0.05736   0.12135   0.60284  -0.30688
N          N       0.03342   0.04029   0.66107  -0.35931
N          N       0.19036   0.09163   0.67728  -0.30831
N          N       0.05331   0.56298   0.82357  -0.35908
N          N       0.05734   0.48134   0.87852  -0.30710
N          N       0.03336   0.62082   0.95964  -0.36034
N          N       0.19037   0.58573   0.90836  -0.30828
N          N       0.44673   0.26058   0.82362  -0.35934
N          N       0.44280   0.39742   0.87911  -0.30754
N          N       0.46661   0.33869   0.95966  -0.35980
N          N       0.30988   0.32312   0.90865  -0.31055
N          N       0.44668   0.17640   0.43699  -0.35958
N          N       0.44289   0.12109   0.51844  -0.30737
N          N       0.46673   0.04036   0.37898  -0.35941
N          N       0.30989   0.09136   0.41437  -0.30880
N          N       0.44672   0.56306   0.73937  -0.35924
N          N       0.44285   0.48160   0.60263  -0.30663
N          N       0.46666   0.62114   0.66149  -0.35811
N          N       0.30987   0.58561   0.67701  -0.30900
N          N       0.94671   0.73941   0.17640  -0.35862
N          N       0.94263   0.60285   0.12135  -0.30670
N          N       0.96657   0.66108   0.04030  -0.35907
N          N       0.80963   0.67729   0.09163  -0.30914
N          N       0.94667   0.82357   0.56298  -0.35880
N          N       0.94264   0.87853   0.48134  -0.30664
N          N       0.96662   0.95964   0.62082  -0.35955
N          N       0.80961   0.90836   0.58573  -0.30911
N          N       0.94672   0.43696   0.26066  -0.35964
N          N       0.94260   0.51863   0.39716  -0.30693
N          N       0.96660   0.37906   0.33874  -0.35954
N          N       0.80963   0.41427   0.32260  -0.30924
N          N       0.38173   0.47855   0.52145   0.47217
N          N       0.38195   0.04270   0.52122   0.47338
N          N       0.38194   0.47878   0.95730   0.47323
N          N       0.87973   0.52205   0.47795   0.47318
N          N       0.87971   0.95590   0.47796   0.47331
N          N       0.87972   0.52204   0.04410   0.47359
N          N       0.61804   0.52122   0.04270   0.47346
N          N       0.61804   0.95730   0.47878   0.47333
N          N       0.61825   0.52145   0.47855   0.47245
N          N       0.12027   0.47796   0.95590   0.47360
N          N       0.12028   0.04410   0.52204   0.47362
N          N       0.12026   0.47795   0.52205   0.47349
N          N       0.25042   0.32929   0.49788   0.47155
N          N       0.25042   0.16850   0.67057   0.47152
N          N       0.25043   0.50221   0.83138   0.47166
N          N       0.74957   0.67071   0.50212   0.47159
N          N       0.74956   0.83150   0.32943   0.47141
N          N       0.74956   0.49779   0.16862   0.47164
N          N       0.74957   0.67057   0.16850   0.47141
N          N       0.74955   0.83138   0.50221   0.47191
N          N       0.74957   0.49788   0.32929   0.47160
N          N       0.25042   0.32943   0.83150   0.47145
N          N       0.25043   0.16862   0.49779   0.47182
N          N       0.25042   0.50212   0.67071   0.47147
O          O       0.36595   0.44795   0.46952  -0.34437
O          O       0.30907   0.33077   0.51984  -0.33011
O          O       0.36623   0.02113   0.55163  -0.34419
O          O       0.30908   0.18899   0.66910  -0.33054
O          O       0.36650   0.53076   0.97859  -0.34484
O          O       0.30908   0.48027   0.81085  -0.33042
O          O       0.86363   0.55268   0.52977  -0.34363
O          O       0.80798   0.66969   0.48002  -0.33045
O          O       0.86359   0.97719   0.44742  -0.34316
O          O       0.80799   0.81042   0.33045  -0.33073
O          O       0.86352   0.47026   0.02308  -0.34408
O          O       0.80796   0.51988   0.18973  -0.33015
O          O       0.63376   0.55164   0.02113  -0.34429
O          O       0.69091   0.66910   0.18899  -0.32981
O          O       0.63348   0.97860   0.53076  -0.34528
O          O       0.69091   0.81085   0.48027  -0.32947
O          O       0.63404   0.46952   0.44795  -0.34482
O          O       0.69092   0.51984   0.33077  -0.32918
O          O       0.13639   0.44742   0.97719  -0.34385
O          O       0.19200   0.33045   0.81041  -0.32971
O          O       0.13647   0.02308   0.47026  -0.34413
O          O       0.19203   0.18973   0.51988  -0.32969
O          O       0.13636   0.52977   0.55268  -0.34394
O          O       0.19201   0.48002   0.66969  -0.32943
O          O       0.63404   0.55205   0.53048  -0.34478
O          O       0.69092   0.66923   0.48016  -0.32909
O          O       0.63376   0.97887   0.44837  -0.34422
O          O       0.69091   0.81102   0.33090  -0.32976
O          O       0.63349   0.46924   0.02141  -0.34533
O          O       0.69091   0.51973   0.18915  -0.32954
O          O       0.13636   0.44732   0.47023  -0.34395
O          O       0.19201   0.33031   0.51998  -0.32959
O          O       0.13640   0.02281   0.55258  -0.34377
O          O       0.19200   0.18958   0.66955  -0.32988
O          O       0.13646   0.52974   0.97692  -0.34430
O          O       0.19203   0.48012   0.81027  -0.32935
O          O       0.36622   0.44837   0.97887  -0.34410
O          O       0.30908   0.33090   0.81101  -0.33062
O          O       0.36651   0.02141   0.46924  -0.34492
O          O       0.30908   0.18915   0.51973  -0.33026
O          O       0.36595   0.53048   0.55205  -0.34434
O          O       0.30907   0.48016   0.66923  -0.33024
O          O       0.86360   0.55258   0.02281  -0.34346
O          O       0.80799   0.66955   0.18958  -0.33056
O          O       0.86352   0.97693   0.52974  -0.34383
O          O       0.80796   0.81027   0.48012  -0.33062
O          O       0.86363   0.47023   0.44732  -0.34369
O          O       0.80798   0.51998   0.33031  -0.33033

