data_crystal

_audit_creation_method 'AiiDA-DDEC plugin'

_cell_length_a        20.74379
_cell_length_b        20.74379
_cell_length_c        20.74379

_cell_angle_alpha     90.00000
_cell_angle_beta     90.00000
_cell_angle_gamma     90.00000

_symmetry_space_group_name_Hall 'P 1'
_symmetry_space_group_name_H-M  'P 1'

loop_
_symmetry_equiv_pos_as_xyz
 'x,y,z'

loop_
_atom_site_label
_atom_site_type_symbol
_atom_site_fract_x
_atom_site_fract_y
_atom_site_fract_z
_atom_site_charge
Zn         Zn      0.61105   0.84802   0.82657   0.93055
Zn         Zn      0.44004   0.75160   0.98910   1.01676
Zn         Zn      0.48210   0.87864   0.89489   0.99534
Zn         Zn      0.88896   0.15198   0.32657   0.93057
Zn         Zn      0.05996   0.24840   0.48910   1.01675
Zn         Zn      0.01790   0.12136   0.39489   0.99533
Zn         Zn      0.38896   0.34802   0.67343   0.93055
Zn         Zn      0.55996   0.25160   0.51090   1.01674
Zn         Zn      0.51790   0.37864   0.60511   0.99532
Zn         Zn      0.11104   0.65198   0.17343   0.93054
Zn         Zn      0.94004   0.74840   0.01090   1.01676
Zn         Zn      0.98210   0.62136   0.10511   0.99534
Zn         Zn      0.82657   0.61105   0.84802   0.93054
Zn         Zn      0.98910   0.44004   0.75160   1.01678
Zn         Zn      0.89489   0.48210   0.87864   0.99533
Zn         Zn      0.32657   0.88896   0.15198   0.93057
Zn         Zn      0.48910   0.05996   0.24840   1.01675
Zn         Zn      0.39489   0.01790   0.12136   0.99532
Zn         Zn      0.67343   0.38896   0.34802   0.93055
Zn         Zn      0.51090   0.55996   0.25160   1.01673
Zn         Zn      0.60511   0.51790   0.37864   0.99532
Zn         Zn      0.17343   0.11104   0.65198   0.93054
Zn         Zn      0.01090   0.94004   0.74840   1.01678
Zn         Zn      0.10511   0.98210   0.62136   0.99534
Zn         Zn      0.84802   0.82657   0.61105   0.93054
Zn         Zn      0.75160   0.98910   0.44004   1.01677
Zn         Zn      0.87864   0.89489   0.48210   0.99532
Zn         Zn      0.15198   0.32657   0.88896   0.93057
Zn         Zn      0.24840   0.48910   0.05996   1.01676
Zn         Zn      0.12136   0.39489   0.01790   0.99532
Zn         Zn      0.34802   0.67343   0.38896   0.93056
Zn         Zn      0.25160   0.51090   0.55996   1.01674
Zn         Zn      0.37864   0.60511   0.51790   0.99532
Zn         Zn      0.65198   0.17343   0.11104   0.93054
Zn         Zn      0.74840   0.01090   0.94004   1.01675
Zn         Zn      0.62136   0.10511   0.98210   0.99534
Zn         Zn      0.38896   0.15198   0.17343   0.93054
Zn         Zn      0.55996   0.24840   0.01090   1.01675
Zn         Zn      0.51790   0.12136   0.10511   0.99530
Zn         Zn      0.11104   0.84802   0.67343   0.93051
Zn         Zn      0.94004   0.75160   0.51090   1.01676
Zn         Zn      0.98210   0.87864   0.60511   0.99531
Zn         Zn      0.61105   0.65198   0.32657   0.93054
Zn         Zn      0.44004   0.74840   0.48910   1.01676
Zn         Zn      0.48210   0.62136   0.39489   0.99535
Zn         Zn      0.88896   0.34802   0.82657   0.93058
Zn         Zn      0.05996   0.25160   0.98910   1.01676
Zn         Zn      0.01790   0.37864   0.89489   0.99534
Zn         Zn      0.17343   0.38896   0.15198   0.93054
Zn         Zn      0.01090   0.55996   0.24840   1.01674
Zn         Zn      0.10511   0.51790   0.12136   0.99531
Zn         Zn      0.67343   0.11104   0.84802   0.93052
Zn         Zn      0.51090   0.94004   0.75160   1.01676
Zn         Zn      0.60511   0.98210   0.87864   0.99531
Zn         Zn      0.32657   0.61105   0.65198   0.93056
Zn         Zn      0.48910   0.44004   0.74840   1.01676
Zn         Zn      0.39489   0.48210   0.62136   0.99535
Zn         Zn      0.82657   0.88896   0.34802   0.93056
Zn         Zn      0.98910   0.05996   0.25160   1.01677
Zn         Zn      0.89489   0.01790   0.37864   0.99534
Zn         Zn      0.15198   0.17343   0.38896   0.93055
Zn         Zn      0.24840   0.01090   0.55996   1.01674
Zn         Zn      0.12136   0.10511   0.51790   0.99530
Zn         Zn      0.84802   0.67343   0.11104   0.93052
Zn         Zn      0.75160   0.51090   0.94004   1.01676
Zn         Zn      0.87864   0.60511   0.98210   0.99531
Zn         Zn      0.65198   0.32657   0.61105   0.93055
Zn         Zn      0.74840   0.48910   0.44004   1.01677
Zn         Zn      0.62136   0.39489   0.48210   0.99535
Zn         Zn      0.34802   0.82657   0.88896   0.93058
Zn         Zn      0.25160   0.98910   0.05996   1.01676
Zn         Zn      0.37864   0.89489   0.01790   0.99534
H          H       0.62214   0.69482   0.88010   0.11892
H          H       0.65726   0.68979   0.00738   0.13311
H          H       0.69469   0.79710   0.01621   0.11930
H          H       0.77278   0.79743   0.89259   0.11234
H          H       0.87786   0.30518   0.38010   0.11896
H          H       0.84274   0.31021   0.50738   0.13313
H          H       0.80532   0.20290   0.51621   0.11931
H          H       0.72722   0.20257   0.39259   0.11234
H          H       0.37786   0.19482   0.61990   0.11895
H          H       0.34274   0.18979   0.49262   0.13312
H          H       0.30531   0.29710   0.48379   0.11930
H          H       0.22722   0.29743   0.60741   0.11235
H          H       0.12214   0.80518   0.11990   0.11896
H          H       0.15726   0.81021   0.99262   0.13311
H          H       0.19469   0.70290   0.98379   0.11928
H          H       0.27278   0.70257   0.10741   0.11236
H          H       0.88010   0.62214   0.69482   0.11892
H          H       0.00738   0.65726   0.68979   0.13313
H          H       0.01621   0.69469   0.79710   0.11930
H          H       0.89259   0.77278   0.79743   0.11235
H          H       0.38010   0.87786   0.30518   0.11896
H          H       0.50738   0.84274   0.31021   0.13312
H          H       0.51621   0.80532   0.20290   0.11931
H          H       0.39259   0.72722   0.20257   0.11235
H          H       0.61990   0.37786   0.19482   0.11895
H          H       0.49262   0.34274   0.18979   0.13312
H          H       0.48379   0.30531   0.29710   0.11931
H          H       0.60741   0.22722   0.29743   0.11235
H          H       0.11990   0.12214   0.80518   0.11897
H          H       0.99262   0.15726   0.81021   0.13312
H          H       0.98379   0.19469   0.70290   0.11928
H          H       0.10741   0.27278   0.70257   0.11236
H          H       0.69482   0.88010   0.62214   0.11892
H          H       0.68979   0.00738   0.65726   0.13311
H          H       0.79710   0.01621   0.69469   0.11930
H          H       0.79743   0.89259   0.77278   0.11235
H          H       0.30518   0.38010   0.87786   0.11896
H          H       0.31021   0.50738   0.84274   0.13313
H          H       0.20290   0.51621   0.80532   0.11931
H          H       0.20257   0.39259   0.72722   0.11235
H          H       0.19482   0.61990   0.37786   0.11895
H          H       0.18979   0.49262   0.34274   0.13312
H          H       0.29710   0.48379   0.30531   0.11931
H          H       0.29743   0.60741   0.22722   0.11235
H          H       0.80518   0.11990   0.12214   0.11897
H          H       0.81021   0.99262   0.15726   0.13312
H          H       0.70290   0.98379   0.19469   0.11928
H          H       0.70257   0.10741   0.27278   0.11236
H          H       0.37786   0.30518   0.11990   0.11896
H          H       0.34274   0.31021   0.99262   0.13310
H          H       0.30531   0.20290   0.98379   0.11928
H          H       0.22722   0.20257   0.10741   0.11236
H          H       0.12214   0.69482   0.61990   0.11894
H          H       0.15726   0.68979   0.49262   0.13311
H          H       0.19469   0.79710   0.48379   0.11930
H          H       0.27278   0.79743   0.60741   0.11236
H          H       0.62214   0.80518   0.38010   0.11896
H          H       0.65726   0.81021   0.50738   0.13313
H          H       0.69469   0.70290   0.51621   0.11928
H          H       0.77278   0.70257   0.39259   0.11236
H          H       0.87786   0.19482   0.88010   0.11894
H          H       0.84274   0.18979   0.00738   0.13315
H          H       0.80532   0.29710   0.01621   0.11931
H          H       0.72722   0.29743   0.89259   0.11235
H          H       0.11990   0.37786   0.30518   0.11896
H          H       0.99262   0.34274   0.31021   0.13310
H          H       0.98379   0.30531   0.20290   0.11930
H          H       0.10741   0.22722   0.20257   0.11236
H          H       0.61990   0.12214   0.69482   0.11894
H          H       0.49262   0.15726   0.68979   0.13311
H          H       0.48379   0.19469   0.79710   0.11929
H          H       0.60741   0.27278   0.79743   0.11236
H          H       0.38010   0.62214   0.80518   0.11896
H          H       0.50738   0.65726   0.81021   0.13314
H          H       0.51621   0.69469   0.70290   0.11928
H          H       0.39259   0.77278   0.70257   0.11236
H          H       0.88010   0.87786   0.19482   0.11894
H          H       0.00738   0.84274   0.18979   0.13315
H          H       0.01621   0.80532   0.29710   0.11931
H          H       0.89259   0.72722   0.29743   0.11235
H          H       0.30518   0.11990   0.37786   0.11896
H          H       0.31021   0.99262   0.34274   0.13310
H          H       0.20290   0.98379   0.30531   0.11929
H          H       0.20257   0.10741   0.22722   0.11236
H          H       0.69482   0.61990   0.12214   0.11894
H          H       0.68979   0.49262   0.15726   0.13311
H          H       0.79710   0.48379   0.19469   0.11930
H          H       0.79743   0.60741   0.27278   0.11236
H          H       0.80518   0.38010   0.62214   0.11896
H          H       0.81021   0.50738   0.65726   0.13314
H          H       0.70290   0.51621   0.69469   0.11928
H          H       0.70257   0.39259   0.77278   0.11236
H          H       0.19482   0.88010   0.87786   0.11894
H          H       0.18979   0.00738   0.84274   0.13315
H          H       0.29710   0.01621   0.80532   0.11931
H          H       0.29743   0.89259   0.72722   0.11235
C          C       0.63756   0.73269   0.91398   0.04031
C          C       0.57444   0.76261   0.93948   0.57513
C          C       0.68385   0.70772   0.96549  -0.17611
C          C       0.72208   0.65240   0.93526   0.61459
C          C       0.72347   0.76948   0.98124  -0.14916
C          C       0.78770   0.75506   0.01516   0.61650
C          C       0.72647   0.80599   0.91665   0.03540
C          C       0.71567   0.87881   0.92339   0.58844
C          C       0.86244   0.26732   0.41398   0.04035
C          C       0.92557   0.23739   0.43948   0.57503
C          C       0.81615   0.29228   0.46549  -0.17614
C          C       0.77792   0.34760   0.43526   0.61455
C          C       0.77653   0.23052   0.48124  -0.14919
C          C       0.71230   0.24494   0.51516   0.61651
C          C       0.77353   0.19401   0.41665   0.03536
C          C       0.78433   0.12119   0.42339   0.58849
C          C       0.36244   0.23269   0.58602   0.04031
C          C       0.42556   0.26261   0.56052   0.57505
C          C       0.31615   0.20772   0.53451  -0.17611
C          C       0.27792   0.15240   0.56474   0.61452
C          C       0.27653   0.26948   0.51876  -0.14921
C          C       0.21230   0.25506   0.48484   0.61653
C          C       0.27353   0.30599   0.58335   0.03535
C          C       0.28433   0.37881   0.57661   0.58860
C          C       0.13756   0.76732   0.08602   0.04034
C          C       0.07444   0.73739   0.06052   0.57515
C          C       0.18385   0.79228   0.03451  -0.17613
C          C       0.22208   0.84760   0.06474   0.61457
C          C       0.22347   0.73052   0.01876  -0.14923
C          C       0.28770   0.74494   0.98484   0.61663
C          C       0.22647   0.69401   0.08335   0.03535
C          C       0.21567   0.62119   0.07661   0.58852
C          C       0.91398   0.63756   0.73269   0.04031
C          C       0.93948   0.57444   0.76261   0.57517
C          C       0.96549   0.68385   0.70772  -0.17614
C          C       0.93526   0.72208   0.65240   0.61459
C          C       0.98124   0.72347   0.76948  -0.14914
C          C       0.01516   0.78770   0.75506   0.61650
C          C       0.91665   0.72647   0.80599   0.03533
C          C       0.92339   0.71567   0.87881   0.58845
C          C       0.41398   0.86244   0.26732   0.04034
C          C       0.43948   0.92557   0.23739   0.57504
C          C       0.46549   0.81615   0.29228  -0.17611
C          C       0.43526   0.77792   0.34760   0.61454
C          C       0.48124   0.77653   0.23052  -0.14919
C          C       0.51516   0.71230   0.24494   0.61652
C          C       0.41665   0.77353   0.19401   0.03535
C          C       0.42339   0.78433   0.12119   0.58851
C          C       0.58602   0.36244   0.23269   0.04033
C          C       0.56052   0.42556   0.26261   0.57499
C          C       0.53451   0.31615   0.20772  -0.17612
C          C       0.56474   0.27792   0.15240   0.61452
C          C       0.51876   0.27653   0.26948  -0.14921
C          C       0.48484   0.21230   0.25506   0.61652
C          C       0.58335   0.27353   0.30599   0.03537
C          C       0.57661   0.28433   0.37881   0.58850
C          C       0.08602   0.13756   0.76732   0.04031
C          C       0.06052   0.07444   0.73739   0.57519
C          C       0.03451   0.18385   0.79228  -0.17614
C          C       0.06474   0.22208   0.84760   0.61459
C          C       0.01876   0.22347   0.73052  -0.14922
C          C       0.98484   0.28770   0.74494   0.61661
C          C       0.08335   0.22647   0.69401   0.03536
C          C       0.07661   0.21567   0.62119   0.58848
C          C       0.73269   0.91398   0.63756   0.04030
C          C       0.76261   0.93948   0.57444   0.57516
C          C       0.70772   0.96549   0.68385  -0.17611
C          C       0.65240   0.93526   0.72208   0.61459
C          C       0.76948   0.98124   0.72347  -0.14918
C          C       0.75506   0.01516   0.78770   0.61650
C          C       0.80599   0.91665   0.72647   0.03543
C          C       0.87881   0.92339   0.71567   0.58842
C          C       0.26732   0.41398   0.86244   0.04035
C          C       0.23739   0.43948   0.92557   0.57504
C          C       0.29228   0.46549   0.81615  -0.17614
C          C       0.34760   0.43526   0.77792   0.61455
C          C       0.23052   0.48124   0.77653  -0.14918
C          C       0.24494   0.51516   0.71230   0.61651
C          C       0.19401   0.41665   0.77353   0.03533
C          C       0.12119   0.42339   0.78433   0.58859
C          C       0.23269   0.58602   0.36244   0.04029
C          C       0.26261   0.56052   0.42556   0.57504
C          C       0.20772   0.53451   0.31615  -0.17611
C          C       0.15240   0.56474   0.27792   0.61451
C          C       0.26948   0.51876   0.27653  -0.14921
C          C       0.25506   0.48484   0.21230   0.61653
C          C       0.30599   0.58335   0.27353   0.03537
C          C       0.37881   0.57661   0.28433   0.58850
C          C       0.76732   0.08602   0.13756   0.04032
C          C       0.73739   0.06052   0.07444   0.57514
C          C       0.79228   0.03451   0.18385  -0.17614
C          C       0.84760   0.06474   0.22208   0.61459
C          C       0.73052   0.01876   0.22347  -0.14923
C          C       0.74494   0.98484   0.28770   0.61661
C          C       0.69401   0.08335   0.22647   0.03536
C          C       0.62119   0.07661   0.21567   0.58852
C          C       0.36244   0.26732   0.08602   0.04031
C          C       0.42556   0.23739   0.06052   0.57508
C          C       0.31615   0.29228   0.03451  -0.17610
C          C       0.27792   0.34760   0.06474   0.61452
C          C       0.27653   0.23052   0.01876  -0.14917
C          C       0.21230   0.24494   0.98484   0.61656
C          C       0.27353   0.19401   0.08335   0.03532
C          C       0.28433   0.12119   0.07661   0.58851
C          C       0.13756   0.73269   0.58602   0.04032
C          C       0.07444   0.76261   0.56052   0.57504
C          C       0.18385   0.70772   0.53451  -0.17615
C          C       0.22208   0.65240   0.56474   0.61455
C          C       0.22347   0.76948   0.51876  -0.14917
C          C       0.28770   0.75506   0.48484   0.61651
C          C       0.22647   0.80599   0.58335   0.03537
C          C       0.21567   0.87881   0.57661   0.58847
C          C       0.63756   0.76732   0.41398   0.04032
C          C       0.57444   0.73739   0.43948   0.57516
C          C       0.68385   0.79228   0.46549  -0.17617
C          C       0.72208   0.84760   0.43526   0.61457
C          C       0.72347   0.73052   0.48124  -0.14916
C          C       0.78770   0.74494   0.51516   0.61647
C          C       0.72647   0.69401   0.41665   0.03541
C          C       0.71567   0.62119   0.42339   0.58845
C          C       0.86244   0.23269   0.91398   0.04030
C          C       0.92557   0.26261   0.93948   0.57508
C          C       0.81615   0.20772   0.96549  -0.17612
C          C       0.77792   0.15240   0.93526   0.61456
C          C       0.77653   0.26948   0.98124  -0.14918
C          C       0.71230   0.25506   0.01516   0.61656
C          C       0.77353   0.30599   0.91665   0.03533
C          C       0.78433   0.37881   0.92339   0.58853
C          C       0.08602   0.36244   0.26732   0.04033
C          C       0.06052   0.42556   0.23739   0.57504
C          C       0.03451   0.31615   0.29228  -0.17608
C          C       0.06474   0.27792   0.34760   0.61452
C          C       0.01876   0.27653   0.23052  -0.14919
C          C       0.98484   0.21230   0.24494   0.61656
C          C       0.08335   0.27353   0.19401   0.03533
C          C       0.07661   0.28433   0.12119   0.58851
C          C       0.58602   0.13756   0.73269   0.04032
C          C       0.56052   0.07444   0.76261   0.57507
C          C       0.53451   0.18385   0.70772  -0.17615
C          C       0.56474   0.22208   0.65240   0.61455
C          C       0.51876   0.22347   0.76948  -0.14916
C          C       0.48484   0.28770   0.75506   0.61649
C          C       0.58335   0.22647   0.80599   0.03537
C          C       0.57661   0.21567   0.87881   0.58844
C          C       0.41398   0.63756   0.76732   0.04033
C          C       0.43948   0.57444   0.73739   0.57522
C          C       0.46549   0.68385   0.79228  -0.17624
C          C       0.43526   0.72208   0.84760   0.61460
C          C       0.48124   0.72347   0.73052  -0.14916
C          C       0.51516   0.78770   0.74494   0.61647
C          C       0.41665   0.72647   0.69401   0.03540
C          C       0.42339   0.71567   0.62119   0.58845
C          C       0.91398   0.86244   0.23269   0.04029
C          C       0.93948   0.92557   0.26261   0.57509
C          C       0.96549   0.81615   0.20772  -0.17614
C          C       0.93526   0.77792   0.15240   0.61456
C          C       0.98124   0.77653   0.26948  -0.14918
C          C       0.01516   0.71230   0.25506   0.61656
C          C       0.91665   0.77353   0.30599   0.03534
C          C       0.92339   0.78433   0.37881   0.58852
C          C       0.26732   0.08602   0.36244   0.04032
C          C       0.23739   0.06052   0.42556   0.57504
C          C       0.29228   0.03451   0.31615  -0.17610
C          C       0.34760   0.06474   0.27792   0.61453
C          C       0.23052   0.01876   0.27653  -0.14918
C          C       0.24494   0.98484   0.21230   0.61656
C          C       0.19401   0.08335   0.27353   0.03530
C          C       0.12119   0.07661   0.28433   0.58861
C          C       0.73269   0.58602   0.13756   0.04032
C          C       0.76261   0.56052   0.07444   0.57507
C          C       0.70772   0.53451   0.18385  -0.17613
C          C       0.65240   0.56474   0.22208   0.61455
C          C       0.76948   0.51876   0.22347  -0.14921
C          C       0.75506   0.48484   0.28770   0.61650
C          C       0.80599   0.58335   0.22647   0.03538
C          C       0.87881   0.57661   0.21567   0.58844
C          C       0.76732   0.41398   0.63756   0.04033
C          C       0.73739   0.43948   0.57444   0.57518
C          C       0.79228   0.46549   0.68385  -0.17623
C          C       0.84760   0.43526   0.72208   0.61459
C          C       0.73052   0.48124   0.72347  -0.14915
C          C       0.74494   0.51516   0.78770   0.61643
C          C       0.69401   0.41665   0.72647   0.03541
C          C       0.62119   0.42339   0.71567   0.58844
C          C       0.23269   0.91398   0.86244   0.04030
C          C       0.26261   0.93948   0.92557   0.57508
C          C       0.20772   0.96549   0.81615  -0.17613
C          C       0.15240   0.93526   0.77792   0.61456
C          C       0.26948   0.98124   0.77653  -0.14918
C          C       0.25506   0.01516   0.71230   0.61656
C          C       0.30599   0.91665   0.77353   0.03534
C          C       0.37881   0.92339   0.78433   0.58852
O          O       0.67570   0.77799   0.87639  -0.23875
O          O       0.55476   0.81074   0.90583  -0.58468
O          O       0.54548   0.73743   0.98609  -0.49529
O          O       0.70140   0.59579   0.94519  -0.54583
O          O       0.76985   0.66895   0.90008  -0.54534
O          O       0.77933   0.72475   0.06844  -0.56070
O          O       0.84039   0.77205   0.99021  -0.54948
O          O       0.75945   0.91249   0.94846  -0.47878
O          O       0.66131   0.89986   0.90287  -0.59217
O          O       0.54212   0.92532   0.84366  -0.98038
O          O       0.82430   0.22201   0.37639  -0.23875
O          O       0.94524   0.18926   0.40583  -0.58460
O          O       0.95452   0.26257   0.48609  -0.49524
O          O       0.79860   0.40421   0.44519  -0.54579
O          O       0.73015   0.33105   0.40008  -0.54533
O          O       0.72067   0.27525   0.56844  -0.56068
O          O       0.65961   0.22795   0.49021  -0.54953
O          O       0.74055   0.08751   0.44846  -0.47885
O          O       0.83869   0.10014   0.40287  -0.59218
O          O       0.95788   0.07468   0.34366  -0.98039
O          O       0.32430   0.27799   0.62361  -0.23868
O          O       0.44524   0.31074   0.59417  -0.58461
O          O       0.45452   0.23743   0.51391  -0.49529
O          O       0.29860   0.09579   0.55481  -0.54580
O          O       0.23015   0.16895   0.59992  -0.54528
O          O       0.22067   0.22475   0.43156  -0.56071
O          O       0.15961   0.27205   0.50979  -0.54951
O          O       0.24055   0.41249   0.55154  -0.47893
O          O       0.33869   0.39986   0.59713  -0.59221
O          O       0.45788   0.42532   0.65634  -0.98038
O          O       0.17570   0.72201   0.12361  -0.23872
O          O       0.05476   0.68926   0.09417  -0.58472
O          O       0.04548   0.76257   0.01391  -0.49529
O          O       0.20140   0.90422   0.05481  -0.54581
O          O       0.26985   0.83105   0.09992  -0.54535
O          O       0.27933   0.77525   0.93156  -0.56076
O          O       0.34039   0.72795   0.00979  -0.54954
O          O       0.25945   0.58751   0.05154  -0.47884
O          O       0.16131   0.60014   0.09713  -0.59219
O          O       0.04212   0.57468   0.15634  -0.98038
O          O       0.87639   0.67570   0.77799  -0.23873
O          O       0.90583   0.55476   0.81074  -0.58469
O          O       0.98609   0.54548   0.73743  -0.49530
O          O       0.94519   0.70140   0.59579  -0.54583
O          O       0.90008   0.76985   0.66895  -0.54534
O          O       0.06844   0.77933   0.72475  -0.56070
O          O       0.99021   0.84039   0.77205  -0.54948
O          O       0.94846   0.75945   0.91249  -0.47878
O          O       0.90287   0.66131   0.89986  -0.59217
O          O       0.84366   0.54212   0.92532  -0.98038
O          O       0.37639   0.82430   0.22201  -0.23874
O          O       0.40583   0.94524   0.18926  -0.58459
O          O       0.48609   0.95452   0.26257  -0.49525
O          O       0.44519   0.79860   0.40422  -0.54579
O          O       0.40008   0.73015   0.33105  -0.54533
O          O       0.56844   0.72067   0.27525  -0.56068
O          O       0.49021   0.65961   0.22795  -0.54952
O          O       0.44846   0.74055   0.08751  -0.47885
O          O       0.40287   0.83869   0.10014  -0.59219
O          O       0.34366   0.95788   0.07468  -0.98039
O          O       0.62361   0.32430   0.27799  -0.23868
O          O       0.59417   0.44524   0.31074  -0.58458
O          O       0.51391   0.45452   0.23743  -0.49528
O          O       0.55481   0.29860   0.09579  -0.54580
O          O       0.59992   0.23015   0.16895  -0.54528
O          O       0.43156   0.22067   0.22475  -0.56071
O          O       0.50979   0.15961   0.27205  -0.54950
O          O       0.55154   0.24055   0.41249  -0.47886
O          O       0.59713   0.33869   0.39986  -0.59218
O          O       0.65634   0.45788   0.42532  -0.98038
O          O       0.12361   0.17570   0.72201  -0.23871
O          O       0.09417   0.05476   0.68926  -0.58475
O          O       0.01391   0.04548   0.76257  -0.49529
O          O       0.05481   0.20140   0.90422  -0.54581
O          O       0.09992   0.26985   0.83105  -0.54535
O          O       0.93156   0.27933   0.77525  -0.56075
O          O       0.00979   0.34039   0.72795  -0.54954
O          O       0.05154   0.25945   0.58751  -0.47882
O          O       0.09713   0.16131   0.60014  -0.59218
O          O       0.15634   0.04212   0.57468  -0.98037
O          O       0.77799   0.87639   0.67570  -0.23876
O          O       0.81074   0.90583   0.55476  -0.58468
O          O       0.73743   0.98609   0.54548  -0.49530
O          O       0.59579   0.94519   0.70140  -0.54583
O          O       0.66895   0.90008   0.76985  -0.54534
O          O       0.72475   0.06844   0.77933  -0.56071
O          O       0.77205   0.99021   0.84039  -0.54947
O          O       0.91249   0.94846   0.75945  -0.47878
O          O       0.89986   0.90287   0.66131  -0.59217
O          O       0.92532   0.84366   0.54212  -0.98037
O          O       0.22201   0.37639   0.82430  -0.23874
O          O       0.18926   0.40583   0.94524  -0.58460
O          O       0.26257   0.48609   0.95452  -0.49524
O          O       0.40421   0.44519   0.79860  -0.54579
O          O       0.33105   0.40008   0.73015  -0.54533
O          O       0.27525   0.56844   0.72067  -0.56067
O          O       0.22795   0.49021   0.65961  -0.54952
O          O       0.08751   0.44846   0.74055  -0.47892
O          O       0.10014   0.40287   0.83869  -0.59220
O          O       0.07468   0.34366   0.95788  -0.98039
O          O       0.27799   0.62361   0.32430  -0.23868
O          O       0.31074   0.59417   0.44524  -0.58460
O          O       0.23743   0.51391   0.45452  -0.49528
O          O       0.09579   0.55481   0.29860  -0.54580
O          O       0.16895   0.59992   0.23015  -0.54528
O          O       0.22475   0.43156   0.22067  -0.56071
O          O       0.27205   0.50979   0.15961  -0.54951
O          O       0.41249   0.55154   0.24055  -0.47886
O          O       0.39986   0.59713   0.33869  -0.59219
O          O       0.42532   0.65634   0.45788  -0.98038
O          O       0.72201   0.12361   0.17570  -0.23871
O          O       0.68926   0.09417   0.05476  -0.58473
O          O       0.76257   0.01391   0.04548  -0.49528
O          O       0.90422   0.05481   0.20140  -0.54581
O          O       0.83105   0.09992   0.26985  -0.54535
O          O       0.77525   0.93156   0.27933  -0.56074
O          O       0.72795   0.00979   0.34039  -0.54954
O          O       0.58751   0.05154   0.25945  -0.47884
O          O       0.60014   0.09713   0.16131  -0.59219
O          O       0.57468   0.15634   0.04212  -0.98037
O          O       0.32430   0.22201   0.12361  -0.23870
O          O       0.44524   0.18926   0.09417  -0.58462
O          O       0.45452   0.26257   0.01391  -0.49527
O          O       0.29860   0.40421   0.05481  -0.54579
O          O       0.23015   0.33105   0.09992  -0.54531
O          O       0.22067   0.27525   0.93156  -0.56073
O          O       0.15961   0.22795   0.00979  -0.54953
O          O       0.24055   0.08751   0.05154  -0.47884
O          O       0.33869   0.10014   0.09713  -0.59218
O          O       0.45788   0.07468   0.15634  -0.98039
O          O       0.17570   0.77799   0.62361  -0.23869
O          O       0.05476   0.81074   0.59417  -0.58457
O          O       0.04548   0.73743   0.51391  -0.49530
O          O       0.20140   0.59579   0.55481  -0.54582
O          O       0.26985   0.66895   0.59992  -0.54530
O          O       0.27933   0.72475   0.43156  -0.56073
O          O       0.34039   0.77205   0.50979  -0.54948
O          O       0.25945   0.91249   0.55154  -0.47882
O          O       0.16131   0.89986   0.59713  -0.59218
O          O       0.04212   0.92532   0.65634  -0.98037
O          O       0.67570   0.72201   0.37639  -0.23875
O          O       0.55476   0.68926   0.40583  -0.58474
O          O       0.54548   0.76257   0.48609  -0.49529
O          O       0.70140   0.90422   0.44519  -0.54580
O          O       0.76985   0.83105   0.40008  -0.54533
O          O       0.77933   0.77525   0.56844  -0.56065
O          O       0.84039   0.72795   0.49021  -0.54950
O          O       0.75945   0.58751   0.44846  -0.47880
O          O       0.66131   0.60014   0.40287  -0.59218
O          O       0.54212   0.57468   0.34366  -0.98040
O          O       0.82430   0.27799   0.87639  -0.23872
O          O       0.94524   0.31074   0.90583  -0.58462
O          O       0.95452   0.23743   0.98609  -0.49525
O          O       0.79860   0.09579   0.94519  -0.54579
O          O       0.73015   0.16895   0.90008  -0.54533
O          O       0.72067   0.22475   0.06844  -0.56069
O          O       0.65961   0.27205   0.99021  -0.54954
O          O       0.74055   0.41249   0.94846  -0.47888
O          O       0.83869   0.39986   0.90287  -0.59219
O          O       0.95788   0.42532   0.84366  -0.98039
O          O       0.12361   0.32430   0.22201  -0.23872
O          O       0.09417   0.44524   0.18926  -0.58461
O          O       0.01391   0.45452   0.26257  -0.49525
O          O       0.05481   0.29860   0.40422  -0.54579
O          O       0.09992   0.23015   0.33105  -0.54530
O          O       0.93156   0.22067   0.27525  -0.56073
O          O       0.00979   0.15961   0.22795  -0.54953
O          O       0.05154   0.24055   0.08751  -0.47884
O          O       0.09713   0.33869   0.10014  -0.59218
O          O       0.15634   0.45788   0.07468  -0.98040
O          O       0.62361   0.17570   0.77799  -0.23869
O          O       0.59417   0.05476   0.81074  -0.58460
O          O       0.51391   0.04548   0.73743  -0.49530
O          O       0.55481   0.20140   0.59579  -0.54581
O          O       0.59992   0.26985   0.66895  -0.54530
O          O       0.43156   0.27933   0.72475  -0.56071
O          O       0.50979   0.34039   0.77205  -0.54948
O          O       0.55154   0.25945   0.91249  -0.47881
O          O       0.59713   0.16131   0.89986  -0.59217
O          O       0.65634   0.04212   0.92532  -0.98036
O          O       0.37639   0.67570   0.72201  -0.23875
O          O       0.40583   0.55476   0.68926  -0.58481
O          O       0.48609   0.54548   0.76257  -0.49527
O          O       0.44519   0.70140   0.90422  -0.54580
O          O       0.40008   0.76985   0.83105  -0.54535
O          O       0.56844   0.77933   0.77525  -0.56066
O          O       0.49021   0.84039   0.72795  -0.54949
O          O       0.44846   0.75945   0.58751  -0.47880
O          O       0.40287   0.66131   0.60014  -0.59218
O          O       0.34366   0.54212   0.57468  -0.98040
O          O       0.87639   0.82430   0.27799  -0.23871
O          O       0.90583   0.94524   0.31074  -0.58462
O          O       0.98609   0.95452   0.23743  -0.49525
O          O       0.94519   0.79860   0.09579  -0.54579
O          O       0.90008   0.73015   0.16895  -0.54534
O          O       0.06844   0.72067   0.22475  -0.56069
O          O       0.99021   0.65961   0.27205  -0.54954
O          O       0.94846   0.74055   0.41249  -0.47887
O          O       0.90287   0.83869   0.39986  -0.59219
O          O       0.84366   0.95788   0.42532  -0.98038
O          O       0.22201   0.12361   0.32430  -0.23870
O          O       0.18926   0.09417   0.44524  -0.58460
O          O       0.26257   0.01391   0.45452  -0.49526
O          O       0.40421   0.05481   0.29860  -0.54579
O          O       0.33105   0.09992   0.23015  -0.54531
O          O       0.27525   0.93156   0.22067  -0.56073
O          O       0.22795   0.00979   0.15961  -0.54953
O          O       0.08751   0.05154   0.24055  -0.47892
O          O       0.10014   0.09713   0.33869  -0.59221
O          O       0.07468   0.15634   0.45788  -0.98039
O          O       0.77799   0.62361   0.17570  -0.23869
O          O       0.81074   0.59417   0.05476  -0.58461
O          O       0.73743   0.51391   0.04548  -0.49530
O          O       0.59579   0.55481   0.20140  -0.54582
O          O       0.66895   0.59992   0.26985  -0.54530
O          O       0.72475   0.43156   0.27933  -0.56071
O          O       0.77205   0.50979   0.34039  -0.54948
O          O       0.91249   0.55154   0.25945  -0.47881
O          O       0.89986   0.59713   0.16131  -0.59217
O          O       0.92532   0.65634   0.04212  -0.98036
O          O       0.72201   0.37639   0.67570  -0.23875
O          O       0.68926   0.40583   0.55476  -0.58475
O          O       0.76257   0.48609   0.54548  -0.49528
O          O       0.90422   0.44519   0.70140  -0.54581
O          O       0.83105   0.40008   0.76985  -0.54534
O          O       0.77525   0.56844   0.77933  -0.56065
O          O       0.72795   0.49021   0.84039  -0.54946
O          O       0.58751   0.44846   0.75945  -0.47880
O          O       0.60014   0.40287   0.66131  -0.59218
O          O       0.57468   0.34366   0.54212  -0.98040
O          O       0.27799   0.87639   0.82430  -0.23872
O          O       0.31074   0.90583   0.94524  -0.58462
O          O       0.23743   0.98609   0.95452  -0.49525
O          O       0.09579   0.94519   0.79860  -0.54579
O          O       0.16895   0.90008   0.73015  -0.54533
O          O       0.22475   0.06844   0.72067  -0.56069
O          O       0.27205   0.99021   0.65961  -0.54954
O          O       0.41249   0.94846   0.74055  -0.47888
O          O       0.39986   0.90287   0.83869  -0.59219
O          O       0.42532   0.84366   0.95788  -0.98039

