data_crystal

_audit_creation_method 'AiiDA-DDEC plugin'

_cell_length_a        15.25388
_cell_length_b        21.93224
_cell_length_c        40.30167

_cell_angle_alpha     90.00627
_cell_angle_beta     89.98883
_cell_angle_gamma     107.06677

_symmetry_space_group_name_Hall 'P 1'
_symmetry_space_group_name_H-M  'P 1'

loop_
_symmetry_equiv_pos_as_xyz
 'x,y,z'

loop_
_atom_site_label
_atom_site_type_symbol
_atom_site_fract_x
_atom_site_fract_y
_atom_site_fract_z
_atom_site_charge
Cu         Cu      0.70395   0.80022   0.76132   0.90044
Cu         Cu      0.80451   0.86237   0.71866   0.89904
Cu         Cu      0.48109   0.04861   0.00725   0.90027
Cu         Cu      0.79598   0.69971   0.26118   0.90419
Cu         Cu      0.69450   0.63659   0.21908   0.89834
Cu         Cu      0.01783   0.45106   0.50715   0.90016
Cu         Cu      0.29606   0.19978   0.23868   0.90050
Cu         Cu      0.19550   0.13764   0.28134   0.89877
Cu         Cu      0.51892   0.95140   0.99275   0.90006
Cu         Cu      0.20403   0.30029   0.73882   0.90397
Cu         Cu      0.30551   0.36341   0.78092   0.89839
Cu         Cu      0.98218   0.54894   0.49285   0.90013
H          H       0.98267   0.74711   0.69671   0.12960
H          H       0.05123   0.94012   0.77276   0.13074
H          H       0.27043   0.05052   0.94009   0.12982
H          H       0.34245   0.88422   0.90981   0.12982
H          H       0.80328   0.64290   0.77248   0.13404
H          H       0.45972   0.71689   0.70828   0.13021
H          H       0.65130   0.78636   0.62938   0.13283
H          H       0.86328   0.85155   0.84982   0.13260
H          H       0.22287   0.53495   0.78237   0.12934
H          H       0.04241   0.41793   0.71068   0.13101
H          H       0.26638   0.52455   0.55943   0.12893
H          H       0.16395   0.68678   0.55933   0.12924
H          H       0.29524   0.01572   0.77968   0.11858
H          H       0.18438   0.02639   0.77258   0.10480
H          H       0.20363   0.95103   0.76361   0.09916
H          H       0.84948   0.44840   0.66919   0.11909
H          H       0.88734   0.40276   0.69999   0.10072
H          H       0.96121   0.43686   0.66577   0.10391
H          H       0.18151   0.71306   0.66117   0.12466
H          H       0.13762   0.76547   0.68611   0.10167
H          H       0.06616   0.71644   0.65507   0.10105
H          H       0.81853   0.50252   0.81637   0.11858
H          H       0.75551   0.53743   0.78837   0.09963
H          H       0.83038   0.58626   0.81863   0.10597
H          H       0.09160   0.11088   0.90794   0.12567
H          H       0.21288   0.12172   0.91140   0.10350
H          H       0.13575   0.07655   0.94220   0.10078
H          H       0.23585   0.77086   0.84613   0.11113
H          H       0.25716   0.78609   0.88956   0.10695
H          H       0.33611   0.83182   0.85946   0.10029
H          H       0.91123   0.83689   0.93660   0.11799
H          H       0.88104   0.79695   0.89754   0.10450
H          H       0.85472   0.87017   0.90551   0.09699
H          H       0.46345   0.50430   0.60072   0.12137
H          H       0.40917   0.51246   0.56213   0.10014
H          H       0.34058   0.48288   0.59815   0.10139
H          H       0.22440   0.62032   0.70277   0.11877
H          H       0.30676   0.69265   0.71558   0.10012
H          H       0.33991   0.62072   0.71208   0.10719
H          H       0.25229   0.83443   0.60482   0.11694
H          H       0.16189   0.76090   0.60069   0.09674
H          H       0.22936   0.79568   0.56524   0.10416
H          H       0.61309   0.76074   0.54121   0.11728
H          H       0.66798   0.74211   0.57761   0.09901
H          H       0.63944   0.81579   0.57521   0.10414
H          H       0.22295   0.69005   0.81241   0.10899
H          H       0.28158   0.64599   0.78781   0.10238
H          H       0.20726   0.60732   0.82101   0.10490
H          H       0.51782   0.75281   0.19696   0.13077
H          H       0.44751   0.55918   0.27276   0.13108
H          H       0.22873   0.44946   0.43978   0.12980
H          H       0.15797   0.61624   0.40962   0.13062
H          H       0.69678   0.85739   0.27272   0.13353
H          H       0.04062   0.78293   0.20835   0.12973
H          H       0.84839   0.71350   0.12959   0.12854
H          H       0.63709   0.64810   0.34925   0.13000
H          H       0.27692   0.96501   0.28241   0.13292
H          H       0.45706   0.08186   0.21059   0.13123
H          H       0.23479   0.97541   0.05968   0.12873
H          H       0.33594   0.81265   0.05948   0.12935
H          H       0.20445   0.48423   0.27971   0.11689
H          H       0.31556   0.47373   0.27287   0.10462
H          H       0.29625   0.54897   0.26376   0.09884
H          H       0.65001   0.05156   0.16909   0.12099
H          H       0.61187   0.09644   0.20020   0.10179
H          H       0.53882   0.06395   0.16553   0.10397
H          H       0.31892   0.78708   0.16123   0.12689
H          H       0.36285   0.73471   0.18618   0.10198
H          H       0.43387   0.78318   0.15486   0.10172
H          H       0.68168   0.99767   0.31646   0.11872
H          H       0.74504   0.96288   0.28854   0.09958
H          H       0.66943   0.91384   0.31850   0.10646
H          H       0.40802   0.38921   0.40800   0.12571
H          H       0.28678   0.37872   0.41133   0.10363
H          H       0.36380   0.42363   0.44223   0.10164
H          H       0.26483   0.72970   0.34602   0.11124
H          H       0.24282   0.71455   0.38945   0.10664
H          H       0.16504   0.66820   0.35921   0.09957
H          H       0.58978   0.66326   0.43642   0.11840
H          H       0.61985   0.70328   0.39739   0.10461
H          H       0.64691   0.63031   0.40539   0.09837
H          H       0.03702   0.99583   0.10068   0.12109
H          H       0.09109   0.98765   0.06207   0.10021
H          H       0.16008   0.01767   0.09798   0.10224
H          H       0.27553   0.87957   0.20272   0.11873
H          H       0.19308   0.80729   0.21555   0.10037
H          H       0.16014   0.87930   0.21220   0.10624
H          H       0.24720   0.66538   0.10485   0.11789
H          H       0.33706   0.73924   0.10080   0.09756
H          H       0.27029   0.70417   0.06530   0.10365
H          H       0.88736   0.73942   0.04123   0.11620
H          H       0.83198   0.75788   0.07753   0.09798
H          H       0.86058   0.68421   0.07515   0.10371
H          H       0.27707   0.80999   0.31243   0.10951
H          H       0.21864   0.85404   0.28781   0.10298
H          H       0.29246   0.89261   0.32111   0.10500
H          H       0.01734   0.25289   0.30329   0.12948
H          H       0.94878   0.05989   0.22724   0.13083
H          H       0.72958   0.94948   0.05991   0.12975
H          H       0.65756   0.11579   0.09019   0.12995
H          H       0.19673   0.35710   0.22752   0.13435
H          H       0.54029   0.28311   0.29172   0.13027
H          H       0.34871   0.21364   0.37062   0.13246
H          H       0.13673   0.14845   0.15018   0.13284
H          H       0.77714   0.46505   0.21763   0.12947
H          H       0.95760   0.58207   0.28932   0.13111
H          H       0.73363   0.47545   0.44057   0.12887
H          H       0.83606   0.31322   0.44067   0.12949
H          H       0.70477   0.98428   0.22032   0.11828
H          H       0.81563   0.97361   0.22742   0.10501
H          H       0.79638   0.04897   0.23639   0.09929
H          H       0.15053   0.55160   0.33081   0.11923
H          H       0.11267   0.59724   0.30001   0.10083
H          H       0.03880   0.56314   0.33423   0.10358
H          H       0.81850   0.28695   0.33883   0.12434
H          H       0.86239   0.23453   0.31389   0.10152
H          H       0.93385   0.28356   0.34493   0.10130
H          H       0.18148   0.49749   0.18363   0.11852
H          H       0.24450   0.46257   0.21163   0.09998
H          H       0.16963   0.41375   0.18137   0.10594
H          H       0.90841   0.88912   0.09206   0.12592
H          H       0.78713   0.87828   0.08860   0.10328
H          H       0.86426   0.92345   0.05780   0.10088
H          H       0.76416   0.22914   0.15387   0.11127
H          H       0.74285   0.21391   0.11044   0.10710
H          H       0.66390   0.16818   0.14054   0.10000
H          H       0.08878   0.16311   0.06340   0.11792
H          H       0.11897   0.20305   0.10246   0.10459
H          H       0.14529   0.12984   0.09449   0.09724
H          H       0.53656   0.49570   0.39928   0.12106
H          H       0.59084   0.48754   0.43787   0.10017
H          H       0.65943   0.51712   0.40185   0.10183
H          H       0.77561   0.37969   0.29723   0.11914
H          H       0.69325   0.30735   0.28442   0.09999
H          H       0.66010   0.37928   0.28792   0.10692
H          H       0.74772   0.16557   0.39518   0.11678
H          H       0.83812   0.23910   0.39931   0.09704
H          H       0.77065   0.20432   0.43476   0.10420
H          H       0.38692   0.23926   0.45879   0.11729
H          H       0.33203   0.25789   0.42239   0.09864
H          H       0.36057   0.18421   0.42479   0.10405
H          H       0.77706   0.30996   0.18759   0.10912
H          H       0.71843   0.35402   0.21219   0.10211
H          H       0.79275   0.39268   0.17899   0.10507
H          H       0.48219   0.24719   0.80304   0.13085
H          H       0.55250   0.44082   0.72724   0.13109
H          H       0.77128   0.55054   0.56022   0.12980
H          H       0.84204   0.38377   0.59038   0.13087
H          H       0.30323   0.14261   0.72728   0.13318
H          H       0.95939   0.21707   0.79165   0.12972
H          H       0.15162   0.28650   0.87041   0.12873
H          H       0.36292   0.35190   0.65075   0.12982
H          H       0.72309   0.03499   0.71759   0.13319
H          H       0.54295   0.91814   0.78941   0.13116
H          H       0.76522   0.02459   0.94032   0.12869
H          H       0.66407   0.18735   0.94052   0.12911
H          H       0.79556   0.51577   0.72029   0.11719
H          H       0.68445   0.52627   0.72713   0.10454
H          H       0.70376   0.45103   0.73624   0.09884
H          H       0.35000   0.94844   0.83091   0.12069
H          H       0.38814   0.90356   0.79980   0.10164
H          H       0.46119   0.93605   0.83447   0.10425
H          H       0.68109   0.21292   0.83877   0.12530
H          H       0.63716   0.26529   0.81382   0.10210
H          H       0.56614   0.21682   0.84514   0.10148
H          H       0.31833   0.00233   0.68354   0.11877
H          H       0.25497   0.03712   0.71146   0.09918
H          H       0.33058   0.08616   0.68150   0.10653
H          H       0.59199   0.61079   0.59200   0.12552
H          H       0.71322   0.62128   0.58867   0.10388
H          H       0.63621   0.57637   0.55777   0.10159
H          H       0.73518   0.27030   0.65398   0.11115
H          H       0.75719   0.28545   0.61055   0.10661
H          H       0.83497   0.33181   0.64079   0.09977
H          H       0.41023   0.33674   0.56358   0.11847
H          H       0.38016   0.29672   0.60261   0.10454
H          H       0.35310   0.36969   0.59461   0.09804
H          H       0.96299   0.00417   0.89932   0.12143
H          H       0.90892   0.01235   0.93793   0.10030
H          H       0.83993   0.98233   0.90202   0.10193
H          H       0.72448   0.12043   0.79728   0.11828
H          H       0.80693   0.19271   0.78445   0.10032
H          H       0.83987   0.12070   0.78780   0.10633
H          H       0.75281   0.33462   0.89515   0.11805
H          H       0.66295   0.26076   0.89920   0.09716
H          H       0.72972   0.29584   0.93470   0.10358
H          H       0.11265   0.26058   0.95877   0.11621
H          H       0.16803   0.24212   0.92247   0.09836
H          H       0.13943   0.31579   0.92485   0.10378
H          H       0.72294   0.19001   0.68757   0.10948
H          H       0.78137   0.14596   0.71219   0.10339
H          H       0.70755   0.10739   0.67889   0.10487
C          C       0.38499   0.98247   0.95265   0.58630
C          C       0.83405   0.74475   0.73328   0.58654
C          C       0.63358   0.78290   0.69572   0.58872
C          C       0.18246   0.42184   0.75107   0.58914
C          C       0.96473   0.70684   0.71358  -0.26018
C          C       0.99185   0.61217   0.73799  -0.09579
C          C       0.03973   0.92775   0.79877  -0.25951
C          C       0.04440   0.56519   0.74014  -0.09701
C          C       0.17076   0.94153   0.87990  -0.09252
C          C       0.91491   0.60501   0.75856   0.21546
C          C       0.25717   0.00941   0.92387  -0.26313
C          C       0.22807   0.90185   0.88316   0.21478
C          C       0.01624   0.66362   0.71559   0.21953
C          C       0.09459   0.92606   0.85558  -0.09850
C          C       0.11112   0.94267   0.82192   0.22139
C          C       0.18670   0.99571   0.90039   0.21932
C          C       0.88807   0.69816   0.73419   0.01535
C          C       0.87596   0.87511   0.78451   0.58837
C          C       0.29863   0.91477   0.90660  -0.26756
C          C       0.86259   0.64752   0.75679  -0.27188
C          C       0.95117   0.89485   0.80940   0.01639
C          C       0.01685   0.50842   0.72150   0.21790
C          C       0.47303   0.72100   0.68184  -0.26033
C          C       0.31213   0.96861   0.92686   0.01580
C          C       0.40470   0.69388   0.65856   0.21925
C          C       0.56117   0.75418   0.67076   0.01592
C          C       0.58222   0.76033   0.63687  -0.27279
C          C       0.42417   0.69893   0.62428  -0.09554
C          C       0.35201   0.66726   0.60003  -0.09361
C          C       0.93269   0.87756   0.84273  -0.27235
C          C       0.11930   0.57469   0.76196   0.21482
C          C       0.00463   0.89361   0.86565   0.21527
C          C       0.51367   0.73193   0.61390   0.21617
C          C       0.16578   0.52878   0.76541  -0.26632
C          C       0.06279   0.46214   0.72460  -0.26046
C          C       0.27380   0.57272   0.56783  -0.26311
C          C       0.20869   0.60252   0.55783   0.01525
C          C       0.13655   0.47264   0.74670   0.01262
C          C       0.21497   0.66484   0.56786  -0.26654
C          C       0.13109   0.56633   0.53646   0.58959
C          C       0.34577   0.60543   0.58853   0.21871
C          C       0.28629   0.69652   0.58915   0.21571
C          C       0.22117   0.99251   0.78031  -0.18603
C          C       0.90899   0.44373   0.68301  -0.18421
C          C       0.12042   0.71902   0.67346  -0.18382
C          C       0.82054   0.54518   0.80189  -0.18222
C          C       0.14407   0.08876   0.91568  -0.18474
C          C       0.26333   0.80791   0.86477  -0.18108
C          C       0.90474   0.84366   0.90989  -0.18132
C          C       0.40529   0.51599   0.58929  -0.18661
C          C       0.29674   0.64813   0.70154  -0.18653
C          C       0.23087   0.78814   0.59220  -0.18125
C          C       0.61758   0.76503   0.56828  -0.18427
C          C       0.21793   0.64351   0.80133  -0.17774
C          C       0.11478   0.51811   0.45246   0.58904
C          C       0.66589   0.75506   0.23389   0.58643
C          C       0.86741   0.71730   0.19658   0.59071
C          C       0.31776   0.07846   0.25090   0.58589
C          C       0.53564   0.79306   0.21384  -0.26492
C          C       0.50841   0.88797   0.23802  -0.09689
C          C       0.45929   0.57166   0.29874  -0.25983
C          C       0.45540   0.93473   0.24003  -0.09604
C          C       0.32983   0.55896   0.37998  -0.09421
C          C       0.58535   0.89532   0.25860   0.21543
C          C       0.24243   0.49072   0.42367  -0.26179
C          C       0.27281   0.59884   0.38317   0.21373
C          C       0.48441   0.83646   0.21562   0.22226
C          C       0.40575   0.57411   0.35561  -0.09583
C          C       0.38827   0.55724   0.32202   0.22046
C          C       0.31340   0.50463   0.40037   0.22040
C          C       0.61201   0.80176   0.23459   0.01915
C          C       0.62230   0.62347   0.28387   0.58726
C          C       0.20176   0.58567   0.40645  -0.26898
C          C       0.63746   0.85263   0.25704  -0.27250
C          C       0.54809   0.60441   0.30914   0.01572
C          C       0.48229   0.99121   0.22116   0.21689
C          C       0.02703   0.77884   0.18194  -0.26047
C          C       0.18760   0.53160   0.42660   0.01481
C          C       0.09505   0.80610   0.15860   0.21975
C          C       0.93875   0.74563   0.17110   0.01453
C          C       0.91742   0.73949   0.13719  -0.26800
C          C       0.07553   0.80105   0.12435  -0.09656
C          C       0.14775   0.83268   0.10005  -0.09293
C          C       0.56747   0.62209   0.34238  -0.26818
C          C       0.38070   0.92536   0.26197   0.21525
C          C       0.49602   0.60635   0.36551   0.21469
C          C       0.98596   0.76790   0.11413   0.21492
C          C       0.33401   0.97120   0.26542  -0.27200
C          C       0.43667   0.03761   0.22446  -0.26014
C          C       0.22701   0.92718   0.06804  -0.26300
C          C       0.29190   0.89718   0.05805   0.01552
C          C       0.36322   0.02734   0.24669   0.01439
C          C       0.28507   0.83475   0.06801  -0.26728
C          C       0.36967   0.93380   0.03687   0.58862
C          C       0.15470   0.89464   0.08861   0.21870
C          C       0.21319   0.80317   0.08915   0.21602
C          C       0.27846   0.50751   0.28049  -0.18448
C          C       0.59029   0.05614   0.18280  -0.18695
C          C       0.38013   0.78104   0.17341  -0.18690
C          C       0.67976   0.95514   0.30190  -0.18330
C          C       0.35569   0.41150   0.41569  -0.18536
C          C       0.23755   0.69266   0.36468  -0.18038
C          C       0.59650   0.65653   0.40971  -0.18207
C          C       0.09535   0.98434   0.08924  -0.18705
C          C       0.20312   0.85186   0.20155  -0.18431
C          C       0.26830   0.71168   0.09225  -0.18357
C          C       0.88254   0.73500   0.06830  -0.18107
C          C       0.28223   0.85655   0.30137  -0.18069
C          C       0.61502   0.01753   0.04735   0.58626
C          C       0.16596   0.25525   0.26672   0.58651
C          C       0.36643   0.21710   0.30428   0.58872
C          C       0.81755   0.57816   0.24893   0.58959
C          C       0.03528   0.29316   0.28642  -0.26008
C          C       0.00816   0.38784   0.26201  -0.09578
C          C       0.96028   0.07225   0.20123  -0.25973
C          C       0.95561   0.43482   0.25986  -0.09674
C          C       0.82925   0.05847   0.12010  -0.09239
C          C       0.08510   0.39499   0.24144   0.21528
C          C       0.74284   0.99059   0.07613  -0.26312
C          C       0.77194   0.09815   0.11684   0.21454
C          C       0.98377   0.33639   0.28441   0.21948
C          C       0.90542   0.07394   0.14442  -0.09853
C          C       0.88889   0.05733   0.17808   0.22156
C          C       0.81331   0.00429   0.09961   0.21942
C          C       0.11194   0.30184   0.26581   0.01509
C          C       0.12405   0.12489   0.21549   0.58821
C          C       0.70138   0.08523   0.09340  -0.26809
C          C       0.13742   0.35248   0.24321  -0.27164
C          C       0.04884   0.10515   0.19060   0.01640
C          C       0.98316   0.49158   0.27850   0.21765
C          C       0.52698   0.27900   0.31816  -0.26008
C          C       0.68788   0.03139   0.07314   0.01567
C          C       0.59531   0.30612   0.34144   0.21888
C          C       0.43884   0.24582   0.32924   0.01555
C          C       0.41779   0.23967   0.36313  -0.27277
C          C       0.57584   0.30107   0.37572  -0.09494
C          C       0.64800   0.33274   0.39997  -0.09407
C          C       0.06732   0.12244   0.15727  -0.27213
C          C       0.88071   0.42531   0.23804   0.21485
C          C       0.99538   0.10639   0.13435   0.21530
C          C       0.48634   0.26807   0.38610   0.21590
C          C       0.83423   0.47122   0.23459  -0.26693
C          C       0.93722   0.53786   0.27540  -0.26035
C          C       0.72621   0.42728   0.43217  -0.26307
C          C       0.79132   0.39749   0.44217   0.01550
C          C       0.86346   0.52736   0.25330   0.01239
C          C       0.78504   0.33516   0.43214  -0.26660
C          C       0.86892   0.43367   0.46354   0.58922
C          C       0.65424   0.39457   0.41147   0.21880
C          C       0.71372   0.30348   0.41085   0.21596
C          C       0.77884   0.00750   0.21969  -0.18619
C          C       0.09102   0.55627   0.31699  -0.18397
C          C       0.87959   0.28098   0.32654  -0.18364
C          C       0.17947   0.45482   0.19811  -0.18211
C          C       0.85594   0.91124   0.08432  -0.18487
C          C       0.73668   0.19209   0.13523  -0.18146
C          C       0.09527   0.15634   0.09011  -0.18108
C          C       0.59472   0.48401   0.41071  -0.18675
C          C       0.70327   0.35188   0.29846  -0.18633
C          C       0.76914   0.21186   0.40780  -0.18100
C          C       0.38243   0.23497   0.43172  -0.18425
C          C       0.78208   0.35649   0.19867  -0.17827
C          C       0.88523   0.48189   0.54754   0.58874
C          C       0.33412   0.24494   0.76611   0.58666
C          C       0.13260   0.28270   0.80342   0.59043
C          C       0.68225   0.92154   0.74910   0.58563
C          C       0.46437   0.20694   0.78616  -0.26473
C          C       0.49160   0.11203   0.76198  -0.09673
C          C       0.54072   0.42834   0.70126  -0.25988
C          C       0.54461   0.06527   0.75997  -0.09622
C          C       0.67018   0.44104   0.62002  -0.09433
C          C       0.41466   0.10468   0.74140   0.21556
C          C       0.75758   0.50928   0.57633  -0.26189
C          C       0.72720   0.40116   0.61683   0.21400
C          C       0.51559   0.16354   0.78438   0.22201
C          C       0.59426   0.42590   0.64439  -0.09578
C          C       0.61174   0.44276   0.67798   0.22040
C          C       0.68661   0.49537   0.59963   0.22055
C          C       0.38800   0.19825   0.76541   0.01891
C          C       0.37771   0.37653   0.71613   0.58752
C          C       0.79825   0.41433   0.59355  -0.26891
C          C       0.36255   0.14737   0.74296  -0.27250
C          C       0.45192   0.39560   0.69086   0.01581
C          C       0.51772   0.00879   0.77884   0.21704
C          C       0.97298   0.22116   0.81806  -0.26074
C          C       0.81241   0.46840   0.57340   0.01490
C          C       0.90496   0.19390   0.84140   0.21987
C          C       0.06125   0.25438   0.82890   0.01466
C          C       0.08259   0.26052   0.86281  -0.26772
C          C       0.92448   0.19896   0.87565  -0.09655
C          C       0.85226   0.16732   0.89995  -0.09275
C          C       0.43254   0.37791   0.65762  -0.26862
C          C       0.61930   0.07464   0.73803   0.21529
C          C       0.50399   0.39365   0.63449   0.21460
C          C       0.01405   0.23210   0.88587   0.21474
C          C       0.66600   0.02881   0.73458  -0.27191
C          C       0.56334   0.96239   0.77554  -0.26025
C          C       0.77300   0.07282   0.93196  -0.26301
C          C       0.70811   0.10282   0.94195   0.01562
C          C       0.63679   0.97266   0.75331   0.01457
C          C       0.71494   0.16526   0.93199  -0.26752
C          C       0.63034   0.06620   0.96313   0.58863
C          C       0.84531   0.10536   0.91139   0.21838
C          C       0.78681   0.19683   0.91085   0.21601
C          C       0.72155   0.49249   0.71951  -0.18470
C          C       0.40972   0.94386   0.81720  -0.18694
C          C       0.61988   0.21896   0.82659  -0.18536
C          C       0.32025   0.04487   0.69810  -0.18332
C          C       0.64432   0.58850   0.58431  -0.18533
C          C       0.76246   0.30734   0.63532  -0.18014
C          C       0.40351   0.34347   0.59029  -0.18213
C          C       0.90466   0.01566   0.91076  -0.18723
C          C       0.79689   0.14814   0.79845  -0.18385
C          C       0.73171   0.28833   0.90775  -0.18365
C          C       0.11747   0.26500   0.93170  -0.18114
C          C       0.71778   0.14345   0.69863  -0.18062
O          O       0.86197   0.79299   0.71386  -0.53799
O          O       0.70951   0.82130   0.68541  -0.54344
O          O       0.79986   0.83651   0.79447  -0.54159
O          O       0.39559   0.03344   0.96981  -0.54034
O          O       0.24439   0.43024   0.77357  -0.54187
O          O       0.15534   0.37284   0.73218  -0.54275
O          O       0.76427   0.73366   0.75260  -0.54559
O          O       0.61379   0.76678   0.72603  -0.54388
O          O       0.89324   0.89687   0.75490  -0.54234
O          O       0.08328   0.59768   0.52191  -0.53747
O          O       0.11788   0.50588   0.53428  -0.54950
O          O       0.43088   0.94237   0.95613  -0.54288
O          O       0.20053   0.97317   0.81419  -0.15316
O          O       0.31638   0.66080   0.66683  -0.15800
O          O       0.12913   0.03258   0.89556  -0.15499
O          O       0.20880   0.85075   0.86187  -0.15986
O          O       0.89655   0.55378   0.77970  -0.16168
O          O       0.09263   0.66750   0.69684  -0.15521
O          O       0.99460   0.87891   0.89886  -0.16189
O          O       0.52730   0.73337   0.58018  -0.16262
O          O       0.94282   0.50243   0.70116  -0.15124
O          O       0.41290   0.58019   0.59939  -0.15675
O          O       0.14112   0.63097   0.77934  -0.15960
O          O       0.29796   0.75711   0.60114  -0.16398
O          O       0.63598   0.70572   0.21538  -0.54021
O          O       0.79091   0.67915   0.18671  -0.54812
O          O       0.69795   0.66329   0.29320  -0.54442
O          O       0.10252   0.46674   0.46943  -0.54150
O          O       0.25423   0.06985   0.27282  -0.54336
O          O       0.34670   0.12783   0.23235  -0.53876
O          O       0.73741   0.76705   0.25239  -0.54489
O          O       0.88854   0.73333   0.22687  -0.54139
O          O       0.60473   0.60005   0.25457  -0.53863
O          O       0.41768   0.90298   0.02197  -0.53965
O          O       0.38255   0.99429   0.03523  -0.54627
O          O       0.07063   0.55922   0.45617  -0.54351
O          O       0.29857   0.52697   0.31441  -0.15293
O          O       0.18311   0.83938   0.16685  -0.15848
O          O       0.37105   0.46780   0.39562  -0.15559
O          O       0.29298   0.65034   0.36206  -0.15967
O          O       0.60434   0.94698   0.27951  -0.16192
O          O       0.40863   0.83281   0.19663  -0.15586
O          O       0.50674   0.62099   0.39874  -0.16275
O          O       0.97270   0.76655   0.08039  -0.16282
O          O       0.55539   0.99693   0.20041  -0.15038
O          O       0.08801   0.92024   0.09943  -0.15662
O          O       0.35948   0.86927   0.27951  -0.15855
O          O       0.20067   0.74242   0.10103  -0.16272
O          O       0.13804   0.20701   0.28614  -0.53809
O          O       0.29050   0.17870   0.31459  -0.54349
O          O       0.20015   0.16349   0.20553  -0.54123
O          O       0.60441   0.96657   0.03019  -0.54014
O          O       0.75562   0.56976   0.22643  -0.54232
O          O       0.84467   0.62716   0.26782  -0.54272
O          O       0.23574   0.26634   0.24740  -0.54531
O          O       0.38622   0.23322   0.27397  -0.54358
O          O       0.10677   0.10313   0.24510  -0.54248
O          O       0.91673   0.40232   0.47809  -0.53733
O          O       0.88211   0.49412   0.46573  -0.54946
O          O       0.56913   0.05763   0.04387  -0.54308
O          O       0.79948   0.02683   0.18581  -0.15356
O          O       0.68363   0.33920   0.33317  -0.15760
O          O       0.87088   0.96742   0.10444  -0.15466
O          O       0.79121   0.14925   0.13813  -0.15925
O          O       0.10346   0.44622   0.22030  -0.16192
O          O       0.90737   0.33250   0.30316  -0.15554
O          O       0.00541   0.12109   0.10114  -0.16238
O          O       0.47271   0.26663   0.41982  -0.16221
O          O       0.05719   0.49757   0.29884  -0.15094
O          O       0.58711   0.41981   0.40061  -0.15708
O          O       0.85889   0.36903   0.22066  -0.15920
O          O       0.70205   0.24289   0.39886  -0.16447
O          O       0.36403   0.29428   0.78462  -0.54007
O          O       0.20910   0.32086   0.81329  -0.54768
O          O       0.30206   0.33671   0.70680  -0.54469
O          O       0.89749   0.53326   0.53058  -0.54154
O          O       0.74578   0.93015   0.72718  -0.54298
O          O       0.65331   0.87217   0.76765  -0.53904
O          O       0.26260   0.23295   0.74761  -0.54518
O          O       0.11147   0.26667   0.77313  -0.54152
O          O       0.39528   0.39995   0.74543  -0.53849
O          O       0.58233   0.09703   0.97803  -0.53977
O          O       0.61746   0.00571   0.96477  -0.54615
O          O       0.92938   0.44078   0.54382  -0.54318
O          O       0.70144   0.47303   0.68559  -0.15247
O          O       0.81690   0.16062   0.83315  -0.15881
O          O       0.62896   0.53220   0.60438  -0.15590
O          O       0.70703   0.34966   0.63794  -0.16026
O          O       0.39567   0.05302   0.72049  -0.16179
O          O       0.59138   0.16719   0.80337  -0.15535
O          O       0.49327   0.37901   0.60126  -0.16233
O          O       0.02731   0.23346   0.91961  -0.16311
O          O       0.44462   0.00307   0.79959  -0.15068
O          O       0.91200   0.07976   0.90057  -0.15607
O          O       0.64053   0.13073   0.72049  -0.15879
O          O       0.79934   0.25758   0.89897  -0.16221

