data_crystal

_audit_creation_method 'AiiDA-DDEC plugin'

_cell_length_a        18.37412
_cell_length_b        18.37856
_cell_length_c        24.49615

_cell_angle_alpha     90.00488
_cell_angle_beta     89.99673
_cell_angle_gamma     120.20490

_symmetry_space_group_name_Hall 'P 1'
_symmetry_space_group_name_H-M  'P 1'

loop_
_symmetry_equiv_pos_as_xyz
 'x,y,z'

loop_
_atom_site_label
_atom_site_type_symbol
_atom_site_fract_x
_atom_site_fract_y
_atom_site_fract_z
_atom_site_charge
Tb         Tb     -0.00022  -0.00132   0.86943   2.07144
Tb         Tb      0.00140  -0.00142   0.36588   2.07245
Tb         Tb      0.00001   0.00003   0.62467   2.06497
Tb         Tb      0.00290   0.00101   0.12949   2.07625
Zn         Zn      0.00002   0.21045   0.85841   0.90539
Zn         Zn     -0.00012   0.33436   0.09031   0.68367
Zn         Zn      0.21087   0.00021   0.85824   0.90366
Zn         Zn      0.33451  -0.00009   0.09029   0.68302
Zn         Zn      0.78906   0.78931   0.85826   0.90433
Zn         Zn      0.66561   0.66564   0.09035   0.68437
Zn         Zn     -0.00021   0.78836   0.35834   0.90235
Zn         Zn      0.00008   0.66576   0.59045   0.68395
Zn         Zn      0.78964   0.00032   0.35848   0.90272
Zn         Zn      0.66595   0.00010   0.59035   0.68339
Zn         Zn      0.21042   0.21088   0.35844   0.90225
Zn         Zn      0.33430   0.33434   0.59048   0.68363
Zn         Zn      0.78950   0.78949   0.64168   0.90581
Zn         Zn      0.66550   0.66559   0.40974   0.68330
Zn         Zn      0.21055  -0.00001   0.64160   0.90540
Zn         Zn      0.33466  -0.00004   0.40992   0.68269
Zn         Zn     -0.00001   0.21064   0.64163   0.90548
Zn         Zn     -0.00010   0.33409   0.40978   0.68475
Zn         Zn      0.21091   0.21107   0.14168   0.90261
Zn         Zn      0.33427   0.33434   0.90957   0.68332
Zn         Zn      0.78931  -0.00011   0.14160   0.90260
Zn         Zn      0.66575   0.00012   0.90956   0.68361
Zn         Zn     -0.00025   0.78919   0.14146   0.90381
Zn         Zn      0.00008   0.66548   0.90971   0.68271
Zn         Zn     -0.00003   0.49984   0.00000   0.56936
Zn         Zn      0.49961   0.00002  -0.00035   0.56912
Zn         Zn      0.49995   0.49997  -0.00002   0.57102
Zn         Zn     -0.00001   0.49934   0.50035   0.56908
Zn         Zn      0.50006   0.00001   0.50015   0.56957
Zn         Zn      0.50026   0.50026   0.50010   0.57080
Zn         Zn      0.66682   0.33365   0.11232   0.73435
Zn         Zn      0.33324   0.66637   0.61233   0.73439
Zn         Zn      0.33354   0.66672   0.38759   0.73433
Zn         Zn      0.66640   0.33326   0.88764   0.73425
Zn         Zn      0.33329   0.66639   0.88765   0.73419
Zn         Zn      0.66683   0.33363   0.38771   0.73403
Zn         Zn      0.66641   0.33328   0.61235   0.73412
Zn         Zn      0.33365   0.66679   0.11236   0.73419
H          H       0.81845   0.47053   0.05176   0.11165
H          H       0.83413   0.22732   0.15394   0.35164
H          H       0.74166   0.22887   0.16557   0.31752
H          H       0.65226   0.18170   0.05179   0.11164
H          H       0.39301   0.16579   0.15396   0.35073
H          H       0.48728   0.25835   0.16552   0.31679
H          H       0.52916   0.34753   0.05165   0.11230
H          H       0.77286   0.60705   0.15399   0.35156
H          H       0.77104   0.51282   0.16549   0.31767
H          H       0.18160   0.52950   0.55178   0.11149
H          H       0.16588   0.77266   0.65398   0.35152
H          H       0.25835   0.77107   0.66555   0.31769
H          H       0.34768   0.81826   0.55180   0.11167
H          H       0.60699   0.83431   0.65394   0.35138
H          H       0.51268   0.74167   0.66550   0.31666
H          H       0.47082   0.65249   0.55171   0.11205
H          H       0.22709   0.39293   0.65404   0.35204
H          H       0.22896   0.48716   0.66550   0.31785
H          H       0.34741   0.52922   0.44826   0.11220
H          H       0.60702   0.77283   0.34597   0.35162
H          H       0.51287   0.77103   0.33450   0.31772
H          H       0.47057   0.81846   0.44826   0.11200
H          H       0.22743   0.83413   0.34597   0.35084
H          H       0.22884   0.74165   0.33442   0.31739
H          H       0.18183   0.65238   0.44824   0.11225
H          H       0.16569   0.39301   0.34608   0.35133
H          H       0.25836   0.48735   0.33452   0.31662
H          H       0.65253   0.47079   0.94829   0.11218
H          H       0.39293   0.22712   0.84600   0.35170
H          H       0.48723   0.22900   0.83450   0.31765
H          H       0.52948   0.18160   0.94821   0.11124
H          H       0.77269   0.16588   0.84606   0.35186
H          H       0.77111   0.25839   0.83443   0.31752
H          H       0.81829   0.34769   0.94821   0.11195
H          H       0.83425   0.60695   0.84600   0.35120
H          H       0.74164   0.51266   0.83448   0.31684
H          H       0.18158   0.52947   0.94818   0.11163
H          H       0.16587   0.77266   0.84605   0.35144
H          H       0.25833   0.77110   0.83442   0.31761
H          H       0.34766   0.81822   0.94819   0.11147
H          H       0.60700   0.83429   0.84604   0.35127
H          H       0.51259   0.74162   0.83449   0.31695
H          H       0.47083   0.65253   0.94831   0.11233
H          H       0.22715   0.39295   0.84602   0.35190
H          H       0.22899   0.48719   0.83449   0.31782
H          H       0.81841   0.47052   0.44825   0.11162
H          H       0.83415   0.22732   0.34612   0.35144
H          H       0.74166   0.22888   0.33441   0.31755
H          H       0.65230   0.18171   0.44823   0.11192
H          H       0.39304   0.16570   0.34604   0.35105
H          H       0.48737   0.25837   0.33448   0.31696
H          H       0.52926   0.34757   0.44831   0.11228
H          H       0.77277   0.60698   0.34593   0.35089
H          H       0.77097   0.51277   0.33448   0.31766
H          H       0.65245   0.47079   0.55169   0.11187
H          H       0.39298   0.22714   0.65411   0.35143
H          H       0.48722   0.22902   0.66552   0.31745
H          H       0.52949   0.18155   0.55180   0.11136
H          H       0.77270   0.16588   0.65393   0.35157
H          H       0.77116   0.25833   0.66559   0.31731
H          H       0.81828   0.34770   0.55178   0.11196
H          H       0.83431   0.60702   0.65392   0.35148
H          H       0.74166   0.51267   0.66553   0.31687
H          H       0.34754   0.52924   0.05172   0.11194
H          H       0.60709   0.77285   0.15403   0.35179
H          H       0.51280   0.77098   0.16551   0.31740
H          H       0.47049   0.81843   0.05178   0.11179
H          H       0.22732   0.83414   0.15395   0.35060
H          H       0.22879   0.74167   0.16556   0.31763
H          H       0.18176   0.65231   0.05183   0.11113
H          H       0.16571   0.39300   0.15391   0.35105
H          H       0.25831   0.48731   0.16552   0.31666
H          H       0.00001   0.21038   0.98603   0.10940
H          H      -0.00001   0.45342   0.87406   0.33422
H          H      -0.00001   0.37358   0.83532   0.32577
H          H       0.21040   0.00002   0.98610   0.10910
H          H       0.45342   0.00002   0.87407   0.33441
H          H       0.37358  -0.00002   0.83532   0.32553
H          H       0.79000   0.79001   0.98612   0.10938
H          H       0.54630   0.54631   0.87403   0.33477
H          H       0.62646   0.62646   0.83524   0.32568
H          H      -0.00002   0.78969   0.48608   0.10913
H          H       0.00000   0.54666   0.37410   0.33477
H          H      -0.00003   0.62629   0.33528   0.32496
H          H       0.78967   0.00001   0.48604   0.10909
H          H       0.54661  -0.00004   0.37409   0.33440
H          H       0.62643  -0.00004   0.33532   0.32553
H          H       0.20996   0.21001   0.48611   0.10897
H          H       0.45370   0.45373   0.37405   0.33484
H          H       0.37356   0.37356   0.33529   0.32493
H          H       0.79000   0.79002   0.51387   0.10862
H          H       0.54633   0.54632   0.62592   0.33477
H          H       0.62647   0.62646   0.66475   0.32597
H          H       0.21035  -0.00001   0.51396   0.10852
H          H       0.45334  -0.00006   0.62593   0.33446
H          H       0.37349  -0.00004   0.66466   0.32547
H          H      -0.00001   0.21035   0.51393   0.10925
H          H       0.00002   0.45340   0.62590   0.33408
H          H      -0.00004   0.37354   0.66471   0.32586
H          H       0.21002   0.21004   0.01382   0.10912
H          H       0.45376   0.45369   0.12593   0.33511
H          H       0.37357   0.37350   0.16473   0.32483
H          H       0.78970   0.00001   0.01388   0.10966
H          H       0.54670   0.00004   0.12579   0.33385
H          H       0.62620  -0.00003   0.16476   0.32568
H          H       0.00001   0.78965   0.01395   0.10945
H          H      -0.00002   0.54659   0.12592   0.33446
H          H      -0.00002   0.62640   0.16471   0.32507
C          C       0.84671   0.04809   0.88996   0.49620
C          C       0.82379   0.31833   0.11253   0.52279
C          C       0.83297   0.42491   0.06848   0.10551
C          C       0.20127   0.15324   0.88996   0.49954
C          C       0.49454   0.17615   0.11251   0.52389
C          C       0.59210   0.16722   0.06857   0.10726
C          C       0.95190   0.79857   0.88999   0.49899
C          C       0.68170   0.50558   0.11253   0.52250
C          C       0.57495   0.40780   0.06844   0.10565
C          C       0.15351   0.95194   0.39000   0.49948
C          C       0.17620   0.68166   0.61250   0.52226
C          C       0.16709   0.57511   0.56847   0.10529
C          C       0.79932   0.84699   0.38988   0.49579
C          C       0.50548   0.82389   0.61250   0.52279
C          C       0.40786   0.83273   0.56855   0.10570
C          C       0.04825   0.20129   0.38994   0.50046
C          C       0.31828   0.49442   0.61253   0.52251
C          C       0.42505   0.59219   0.56847   0.10583
C          C       0.79904   0.95192   0.61009   0.49625
C          C       0.50552   0.68168   0.38748   0.52303
C          C       0.40771   0.57496   0.43150   0.10663
C          C       0.04813   0.84676   0.61000   0.49584
C          C       0.31839   0.82379   0.38747   0.52224
C          C       0.42495   0.83292   0.43151   0.10545
C          C       0.15310   0.20122   0.61001   0.49531
C          C       0.17610   0.49454   0.38750   0.52281
C          C       0.16727   0.59218   0.43147   0.10495
C          C       0.20129   0.04810   0.11000   0.49944
C          C       0.49446   0.31829   0.88748   0.52207
C          C       0.59223   0.42502   0.93153   0.10591
C          C       0.95203   0.15316   0.11004   0.49658
C          C       0.68168   0.17625   0.88746   0.52268
C          C       0.57511   0.16711   0.93151   0.10526
C          C       0.84665   0.79858   0.10996   0.49868
C          C       0.82387   0.50549   0.88748   0.52347
C          C       0.83277   0.40789   0.93145   0.10608
C          C       0.15308   0.95197   0.11004   0.49513
C          C       0.17624   0.68167   0.88747   0.52250
C          C       0.16707   0.57510   0.93150   0.10577
C          C       0.79880   0.84672   0.10999   0.49680
C          C       0.50551   0.82387   0.88751   0.52282
C          C       0.40786   0.83272   0.93146   0.10568
C          C       0.04820   0.20147   0.10998   0.50031
C          C       0.31829   0.49445   0.88746   0.52255
C          C       0.42507   0.59222   0.93157   0.10580
C          C       0.84710   0.04824   0.61006   0.49574
C          C       0.82378   0.31835   0.38747   0.52240
C          C       0.83296   0.42494   0.43153   0.10533
C          C       0.20101   0.15313   0.60998   0.49601
C          C       0.49451   0.17614   0.38749   0.52345
C          C       0.59210   0.16723   0.43147   0.10669
C          C       0.95181   0.79864   0.61002   0.49741
C          C       0.68173   0.50557   0.38746   0.52259
C          C       0.57499   0.40786   0.43154   0.10667
C          C       0.20139   0.04799   0.38999   0.49862
C          C       0.49442   0.31826   0.61252   0.52224
C          C       0.59217   0.42500   0.56846   0.10659
C          C       0.95200   0.15313   0.38989   0.49696
C          C       0.68169   0.17625   0.61254   0.52281
C          C       0.57512   0.16707   0.56849   0.10567
C          C       0.84710   0.79888   0.38991   0.49938
C          C       0.82389   0.50553   0.61251   0.52304
C          C       0.83277   0.40792   0.56852   0.10524
C          C       0.79863   0.95189   0.88998   0.49992
C          C       0.50562   0.68175   0.11254   0.52266
C          C       0.40783   0.57497   0.06849   0.10620
C          C       0.04807   0.84672   0.89001   0.49954
C          C       0.31834   0.82381   0.11254   0.52308
C          C       0.42489   0.83299   0.06847   0.10664
C          C       0.15329   0.20121   0.88996   0.49672
C          C       0.17614   0.49452   0.11250   0.52340
C          C       0.16724   0.59212   0.06858   0.10641
C          C       0.95117   0.21190   0.74999   0.44367
C          C       0.26077   0.04862   0.75003   0.44428
C          C       0.78799   0.73936   0.75001   0.44265
C          C       0.04877   0.78797   0.24998   0.44093
C          C       0.73919   0.95144   0.24996   0.44300
C          C       0.21227   0.26078   0.24995   0.44213
C          C       0.73935   0.78800   0.74999   0.44335
C          C       0.21211   0.95120   0.75003   0.44406
C          C       0.04872   0.26067   0.74999   0.44374
C          C       0.26066   0.21217   0.24998   0.44148
C          C       0.78784   0.04866   0.24996   0.44385
C          C       0.95126   0.73916   0.24994   0.44305
C          C      -0.00001   0.26583   0.97171   0.15966
C          C      -0.00001   0.35773   0.91828   0.51477
C          C       0.26581  -0.00002   0.97173   0.15922
C          C       0.35768  -0.00002   0.91829   0.51480
C          C       0.73440   0.73438   0.97174   0.15960
C          C       0.64223   0.64223   0.91825   0.51423
C          C       0.00003   0.73428   0.47173   0.15755
C          C       0.00004   0.64235   0.41830   0.51483
C          C       0.73422  -0.00002   0.47171   0.15850
C          C       0.64233  -0.00000   0.41829   0.51494
C          C       0.26564   0.26563   0.47177   0.15914
C          C       0.35786   0.35780   0.41831   0.51364
C          C       0.73441   0.73442   0.52827   0.15952
C          C       0.64224   0.64225   0.58174   0.51385
C          C       0.26582  -0.00001   0.52828   0.15931
C          C       0.35770   0.00002   0.58171   0.51488
C          C       0.00001   0.26582   0.52829   0.15946
C          C       0.00000   0.35768   0.58178   0.51531
C          C       0.26564   0.26564   0.02823   0.15965
C          C       0.35781   0.35781   0.08173   0.51368
C          C       0.73428   0.00001   0.02828   0.15873
C          C       0.64242   0.00001   0.08173   0.51459
C          C       0.00002   0.73420   0.02827   0.15859
C          C       0.00003   0.64232   0.08175   0.51476
N          N       0.90117   0.42183   0.05670  -0.16620
N          N       0.78140   0.36156   0.10382  -0.47086
N          N       0.89613   0.35399   0.08459  -0.28323
N          N       0.79414   0.24810   0.14306  -0.65154
N          N       0.52047   0.09890   0.05685  -0.16786
N          N       0.58045   0.21875   0.10379  -0.47136
N          N       0.45756   0.10377   0.08464  -0.28309
N          N       0.45400   0.20576   0.14299  -0.65204
N          N       0.57827   0.47925   0.05685  -0.16834
N          N       0.63829   0.41968   0.10368  -0.47131
N          N       0.64633   0.54240   0.08478  -0.28197
N          N       0.75195   0.54616   0.14312  -0.65349
N          N       0.09886   0.57817   0.55669  -0.16602
N          N       0.21865   0.63848   0.60380  -0.47067
N          N       0.10386   0.64598   0.58457  -0.28284
N          N       0.20587   0.75191   0.64305  -0.65213
N          N       0.47951   0.90108   0.55683  -0.16784
N          N       0.41955   0.78128   0.60379  -0.47076
N          N       0.54249   0.89627   0.58462  -0.28193
N          N       0.54599   0.79427   0.64298  -0.65156
N          N       0.42174   0.52077   0.55685  -0.16796
N          N       0.36171   0.58031   0.60370  -0.47090
N          N       0.35367   0.45761   0.58476  -0.28232
N          N       0.24801   0.45380   0.64311  -0.65343
N          N       0.47914   0.57826   0.44317  -0.16817
N          N       0.41964   0.63828   0.39627  -0.47096
N          N       0.54229   0.64630   0.41527  -0.28286
N          N       0.54618   0.75195   0.35692  -0.65341
N          N       0.42187   0.90111   0.44330  -0.16674
N          N       0.36160   0.78138   0.39614  -0.47059
N          N       0.35405   0.89610   0.41540  -0.28315
N          N       0.24808   0.79411   0.35695  -0.65192
N          N       0.09891   0.52052   0.44317  -0.16763
N          N       0.21872   0.58045   0.39619  -0.47107
N          N       0.10372   0.45759   0.41539  -0.28177
N          N       0.20571   0.45403   0.35700  -0.65217
N          N       0.52079   0.42172   0.94318  -0.16799
N          N       0.58034   0.36171   0.89631  -0.47068
N          N       0.45764   0.35366   0.91527  -0.28262
N          N       0.45383   0.24804   0.85689  -0.65322
N          N       0.57814   0.09892   0.94329  -0.16589
N          N       0.63848   0.21868   0.89619  -0.47094
N          N       0.64598   0.10391   0.91540  -0.28286
N          N       0.75188   0.20587   0.85689  -0.65168
N          N       0.90112   0.47953   0.94317  -0.16784
N          N       0.78130   0.41959   0.89620  -0.47123
N          N       0.89628   0.54248   0.91537  -0.28219
N          N       0.79423   0.54599   0.85701  -0.65120
N          N       0.09888   0.57815   0.94331  -0.16647
N          N       0.21865   0.63846   0.89617  -0.47079
N          N       0.10390   0.64599   0.91542  -0.28336
N          N       0.20587   0.75191   0.85694  -0.65191
N          N       0.47948   0.90107   0.94319  -0.16734
N          N       0.41957   0.78126   0.89621  -0.47092
N          N       0.54246   0.89627   0.91540  -0.28172
N          N       0.54598   0.79424   0.85700  -0.65123
N          N       0.42171   0.52079   0.94319  -0.16798
N          N       0.36173   0.58035   0.89631  -0.47121
N          N       0.35367   0.45765   0.91526  -0.28247
N          N       0.24806   0.45385   0.85688  -0.65283
N          N       0.90115   0.42186   0.44329  -0.16613
N          N       0.78137   0.36157   0.39619  -0.47110
N          N       0.89612   0.35402   0.41538  -0.28364
N          N       0.79415   0.24812   0.35692  -0.65159
N          N       0.52048   0.09888   0.44317  -0.16812
N          N       0.58042   0.21872   0.39623  -0.47141
N          N       0.45752   0.10373   0.41534  -0.28207
N          N       0.45403   0.20578   0.35700  -0.65153
N          N       0.57832   0.47929   0.44317  -0.16859
N          N       0.63829   0.41970   0.39630  -0.47092
N          N       0.64640   0.54241   0.41523  -0.28240
N          N       0.75204   0.54619   0.35692  -0.65303
N          N       0.52073   0.42166   0.55681  -0.16879
N          N       0.58032   0.36172   0.60369  -0.47078
N          N       0.45760   0.35361   0.58473  -0.28200
N          N       0.45380   0.24796   0.64307  -0.65283
N          N       0.57822   0.09892   0.55669  -0.16610
N          N       0.63847   0.21865   0.60383  -0.47108
N          N       0.64607   0.10395   0.58459  -0.28374
N          N       0.75192   0.20586   0.64310  -0.65185
N          N       0.90110   0.47958   0.55680  -0.16708
N          N       0.78130   0.41961   0.60380  -0.47088
N          N       0.89627   0.54253   0.58461  -0.28191
N          N       0.79426   0.54600   0.64301  -0.65141
N          N       0.47924   0.57828   0.05684  -0.16767
N          N       0.41970   0.63830   0.10372  -0.47171
N          N       0.54237   0.64634   0.08475  -0.28226
N          N       0.54622   0.75201   0.14310  -0.65279
N          N       0.42180   0.90113   0.05666  -0.16607
N          N       0.36156   0.78142   0.10384  -0.47103
N          N       0.35397   0.89610   0.08459  -0.28482
N          N       0.24809   0.79418   0.14309  -0.65187
N          N       0.09890   0.52049   0.05686  -0.16744
N          N       0.21874   0.58042   0.10380  -0.47130
N          N       0.10375   0.45757   0.08462  -0.28230
N          N       0.20574   0.45400   0.14298  -0.65157
N          N       0.00001   0.28347   0.91770  -0.44720
N          N      -0.00003   0.32369   0.00364  -0.18639
N          N      -0.00003   0.38458   0.96931  -0.33267
N          N       0.00001   0.39858   0.87195  -0.68350
N          N       0.28342  -0.00001   0.91773  -0.44577
N          N       0.32369  -0.00005   0.00365  -0.18707
N          N       0.38458  -0.00004   0.96931  -0.33066
N          N       0.39855   0.00001   0.87197  -0.68267
N          N       0.71677   0.71675   0.91773  -0.44744
N          N       0.67624   0.67621   0.00359  -0.18600
N          N       0.61517   0.61516   0.96925  -0.33098
N          N       0.60137   0.60137   0.87189  -0.68366
N          N       0.00005   0.71659   0.41773  -0.44720
N          N       0.00001   0.67638   0.50359  -0.18440
N          N       0.00001   0.61550   0.46927  -0.33264
N          N       0.00002   0.60150   0.37196  -0.68499
N          N       0.71657  -0.00008   0.41772  -0.44655
N          N       0.67634   0.00003   0.50364  -0.18528
N          N       0.61547   0.00005   0.46929  -0.33219
N          N       0.60151   0.00007   0.37196  -0.68395
N          N       0.28335   0.28326   0.41777  -0.44708
N          N       0.32376   0.32379   0.50364  -0.18528
N          N       0.38487   0.38488   0.46931  -0.33072
N          N       0.39869   0.39863   0.37193  -0.68320
N          N       0.71679   0.71681   0.58228  -0.44670
N          N       0.67627   0.67625   0.49640  -0.18627
N          N       0.61520   0.61518   0.53074  -0.33023
N          N       0.60138   0.60139   0.62810  -0.68300
N          N       0.28344   0.00004   0.58225  -0.44651
N          N       0.32370  -0.00005   0.49634  -0.18615
N          N       0.38462  -0.00003   0.53071  -0.33236
N          N       0.39857   0.00010   0.62804  -0.68321
N          N       0.00004   0.28343   0.58231  -0.44775
N          N      -0.00002   0.32372   0.49642  -0.18594
N          N      -0.00002   0.38455   0.53077  -0.33091
N          N      -0.00000   0.39853   0.62808  -0.68288
N          N       0.28331   0.28327   0.08221  -0.44679
N          N       0.32381   0.32383   0.99636  -0.18553
N          N       0.38489   0.38491   0.03075  -0.33051
N          N       0.39861   0.39872   0.12810  -0.68305
N          N       0.71668   0.00001   0.08228  -0.44650
N          N       0.67631   0.00001   0.99643  -0.18663
N          N       0.61545  -0.00000   0.03079  -0.33299
N          N       0.60148  -0.00003   0.12806  -0.68540
N          N       0.00005   0.71661   0.08230  -0.44782
N          N       0.00002   0.67630   0.99641  -0.18486
N          N       0.00001   0.61544   0.03075  -0.33208
N          N       0.00004   0.60147   0.12807  -0.68330
Cl         Cl     -0.00001   0.33616   0.18269  -0.54717
Cl         Cl      0.33611  -0.00006   0.18267  -0.54625
Cl         Cl      0.66375   0.66374   0.18276  -0.54895
Cl         Cl     -0.00000   0.66374   0.68280  -0.54677
Cl         Cl      0.66375  -0.00005   0.68268  -0.54583
Cl         Cl      0.33614   0.33612   0.68278  -0.54658
Cl         Cl      0.66389   0.66385   0.31739  -0.54629
Cl         Cl      0.33584  -0.00011   0.31747  -0.54719
Cl         Cl      0.00010   0.33625   0.31735  -0.54762
Cl         Cl      0.33624   0.33626   0.81729  -0.54670
Cl         Cl      0.66383  -0.00003   0.81720  -0.54657
Cl         Cl     -0.00009   0.66390   0.81741  -0.54543
Cl         Cl     -0.00004  -0.00014   0.75026  -0.70156
Cl         Cl      0.00083  -0.00011   0.25109  -0.68568
Cl         Cl      0.00017  -0.00011   0.00152  -0.74284
Cl         Cl      0.00049  -0.00012   0.50293  -0.73389
O          O       0.92463   0.08039   0.87532  -0.63696
O          O       0.91540   0.19632   0.79627  -0.49040
O          O       0.81167   0.08778   0.90444  -0.45556
O          O       0.15568   0.07523   0.87544  -0.64166
O          O       0.28100   0.08456   0.79617  -0.48910
O          O       0.27628   0.18819   0.90448  -0.45605
O          O       0.91987   0.84437   0.87533  -0.64483
O          O       0.80366   0.71934   0.79629  -0.48936
O          O       0.91151   0.72360   0.90454  -0.45502
O          O       0.07558   0.91934   0.37507  -0.64620
O          O       0.08448   0.80377   0.29627  -0.48903
O          O       0.18807   0.91189   0.40460  -0.45209
O          O       0.84534   0.92480   0.37484  -0.64056
O          O       0.71921   0.91550   0.29619  -0.49148
O          O       0.72435   0.81206   0.40450  -0.45432
O          O       0.08048   0.15571   0.37506  -0.64354
O          O       0.19655   0.28089   0.29613  -0.48835
O          O       0.08819   0.27621   0.40455  -0.45648
O          O       0.84493   0.91986   0.62450  -0.64024
O          O       0.71941   0.80364   0.70368  -0.48880
O          O       0.72398   0.91169   0.59580  -0.45529
O          O       0.08057   0.92482   0.62451  -0.63765
O          O       0.19640   0.91551   0.70372  -0.49039
O          O       0.08778   0.81171   0.59561  -0.45544
O          O       0.07508   0.15543   0.62453  -0.63892
O          O       0.08448   0.28074   0.70367  -0.48945
O          O       0.18836   0.27622   0.59562  -0.45581
O          O       0.15559   0.08031   0.12467  -0.64814
O          O       0.28070   0.19632   0.20378  -0.48999
O          O       0.27630   0.08828   0.09568  -0.44966
O          O       0.92003   0.07525   0.12471  -0.63831
O          O       0.80375   0.08465   0.20380  -0.48990
O          O       0.91206   0.18798   0.09572  -0.45497
O          O       0.92469   0.84430   0.12473  -0.64426
O          O       0.91555   0.71932   0.20363  -0.48821
O          O       0.81148   0.72359   0.09550  -0.45597
O          O       0.07500   0.91980   0.12475  -0.64227
O          O       0.08458   0.80384   0.20369  -0.48956
O          O       0.18764   0.91181   0.09586  -0.44826
O          O       0.84467   0.92462   0.12471  -0.63937
O          O       0.71904   0.91534   0.20383  -0.48893
O          O       0.72372   0.81147   0.09554  -0.45790
O          O       0.08052   0.15590   0.12464  -0.64764
O          O       0.19638   0.28063   0.20369  -0.48863
O          O       0.08832   0.27651   0.09561  -0.45442
O          O       0.92514   0.08065   0.62455  -0.63714
O          O       0.91545   0.19632   0.70368  -0.49013
O          O       0.81204   0.08792   0.59574  -0.45504
O          O       0.15507   0.07497   0.62446  -0.63971
O          O       0.28067   0.08441   0.70373  -0.48920
O          O       0.27600   0.18819   0.59559  -0.45506
O          O       0.91979   0.84447   0.62448  -0.64139
O          O       0.80362   0.71935   0.70372  -0.48869
O          O       0.91176   0.72361   0.59567  -0.45706
O          O       0.15545   0.07970   0.37506  -0.64599
O          O       0.28056   0.19627   0.29618  -0.48888
O          O       0.27634   0.08852   0.40448  -0.45279
O          O       0.91955   0.07537   0.37486  -0.63763
O          O       0.80356   0.08441   0.29621  -0.49124
O          O       0.91242   0.18820   0.40456  -0.45762
O          O       0.92521   0.84448   0.37497  -0.64607
O          O       0.91534   0.71899   0.29618  -0.48944
O          O       0.81222   0.72397   0.40453  -0.45264
O          O       0.84419   0.91959   0.87545  -0.64301
O          O       0.71925   0.80359   0.79626  -0.48951
O          O       0.72358   0.91177   0.90443  -0.45488
O          O       0.08037   0.92470   0.87535  -0.64204
O          O       0.19645   0.91529   0.79616  -0.48980
O          O       0.08821   0.81215   0.90449  -0.45528
O          O       0.07539   0.15539   0.87530  -0.63874
O          O       0.08456   0.28085   0.79627  -0.48991
O          O       0.18844   0.27625   0.90447  -0.45737

