data_crystal

_audit_creation_method 'AiiDA-DDEC plugin'

_cell_length_a        16.36997
_cell_length_b        16.36997
_cell_length_c        30.50704

_cell_angle_alpha     90.00000
_cell_angle_beta     90.00000
_cell_angle_gamma     90.00000

_symmetry_space_group_name_Hall 'P 1'
_symmetry_space_group_name_H-M  'P 1'

loop_
_symmetry_equiv_pos_as_xyz
 'x,y,z'

loop_
_atom_site_label
_atom_site_type_symbol
_atom_site_fract_x
_atom_site_fract_y
_atom_site_fract_z
_atom_site_charge
Zn         Zn      0.62815   0.89117   0.79250   0.97451
Zn         Zn      0.62436   0.88971   0.89913   0.96592
Zn         Zn      0.87185   0.60883   0.79250   0.97460
Zn         Zn      0.87564   0.61029   0.89913   0.96592
Zn         Zn      0.60883   0.62815   0.79250   0.97458
Zn         Zn      0.61029   0.62436   0.89913   0.96589
Zn         Zn      0.89117   0.87185   0.79250   0.97454
Zn         Zn      0.88971   0.87564   0.89913   0.96593
Zn         Zn      0.37185   0.39117   0.70750   0.97459
Zn         Zn      0.37564   0.38971   0.60087   0.96601
Zn         Zn      0.12815   0.10883   0.70750   0.97461
Zn         Zn      0.12436   0.11029   0.60087   0.96598
Zn         Zn      0.39117   0.12815   0.70750   0.97460
Zn         Zn      0.38971   0.12436   0.60087   0.96598
Zn         Zn      0.10883   0.37185   0.70750   0.97462
Zn         Zn      0.11029   0.37564   0.60087   0.96598
Zn         Zn      0.37185   0.10883   0.20750   0.97459
Zn         Zn      0.37564   0.11029   0.10087   0.96591
Zn         Zn      0.12815   0.39117   0.20750   0.97459
Zn         Zn      0.12436   0.38971   0.10087   0.96588
Zn         Zn      0.39117   0.37185   0.20750   0.97460
Zn         Zn      0.38971   0.37564   0.10087   0.96593
Zn         Zn      0.10883   0.12815   0.20750   0.97458
Zn         Zn      0.11029   0.12436   0.10087   0.96589
Zn         Zn      0.62815   0.60883   0.29250   0.97459
Zn         Zn      0.62436   0.61029   0.39913   0.96587
Zn         Zn      0.87185   0.89117   0.29250   0.97461
Zn         Zn      0.87564   0.88971   0.39913   0.96588
Zn         Zn      0.60883   0.87185   0.29250   0.97463
Zn         Zn      0.61029   0.87564   0.39913   0.96587
Zn         Zn      0.89117   0.62815   0.29250   0.97459
Zn         Zn      0.88971   0.62436   0.39913   0.96591
H          H       0.39067   0.97842   0.91429   0.11941
H          H       0.17711   0.05419   0.84200   0.11684
H          H       0.40407   0.00861   0.77483   0.12520
H          H       0.32613   0.05895   0.96633   0.11659
H          H       0.10361   0.99613   0.03317   0.10954
H          H       0.04131   0.95398   0.96188   0.11316
H          H       0.12032   0.96539   0.89345   0.11105
H          H       0.73537   0.84630   0.84682   0.38113
H          H       0.10933   0.52157   0.91429   0.11938
H          H       0.32289   0.44581   0.84200   0.11686
H          H       0.09593   0.49139   0.77483   0.12520
H          H       0.17387   0.44105   0.96633   0.11661
H          H       0.39639   0.50387   0.03317   0.10954
H          H       0.45869   0.54602   0.96188   0.11313
H          H       0.37968   0.53461   0.89345   0.11105
H          H       0.76463   0.65370   0.84682   0.38116
H          H       0.52157   0.39067   0.91429   0.11938
H          H       0.44581   0.17711   0.84200   0.11686
H          H       0.49139   0.40407   0.77483   0.12520
H          H       0.44105   0.32613   0.96633   0.11660
H          H       0.50387   0.10361   0.03317   0.10953
H          H       0.54602   0.04131   0.96188   0.11313
H          H       0.53461   0.12032   0.89345   0.11103
H          H       0.65370   0.73537   0.84682   0.38113
H          H       0.97842   0.10933   0.91429   0.11941
H          H       0.05419   0.32289   0.84200   0.11685
H          H       0.00861   0.09593   0.77483   0.12520
H          H       0.05895   0.17387   0.96633   0.11661
H          H       0.99613   0.39639   0.03317   0.10955
H          H       0.95398   0.45869   0.96188   0.11315
H          H       0.96539   0.37968   0.89345   0.11105
H          H       0.84630   0.76463   0.84682   0.38116
H          H       0.60933   0.47843   0.58571   0.11922
H          H       0.82289   0.55419   0.65801   0.11679
H          H       0.59593   0.50861   0.72518   0.12542
H          H       0.67387   0.55895   0.53367   0.11667
H          H       0.89638   0.49613   0.46683   0.10945
H          H       0.95869   0.45398   0.53813   0.11318
H          H       0.87968   0.46539   0.60656   0.11121
H          H       0.26463   0.34630   0.65319   0.38113
H          H       0.89067   0.02157   0.58571   0.11918
H          H       0.67711   0.94581   0.65801   0.11689
H          H       0.90407   0.99139   0.72518   0.12541
H          H       0.82613   0.94105   0.53367   0.11669
H          H       0.60361   0.00387   0.46683   0.10942
H          H       0.54131   0.04602   0.53813   0.11319
H          H       0.62032   0.03461   0.60656   0.11119
H          H       0.23537   0.15370   0.65319   0.38113
H          H       0.47843   0.89067   0.58571   0.11918
H          H       0.55419   0.67711   0.65801   0.11685
H          H       0.50861   0.90407   0.72518   0.12541
H          H       0.55895   0.82613   0.53367   0.11667
H          H       0.49613   0.60361   0.46683   0.10941
H          H       0.45398   0.54131   0.53813   0.11319
H          H       0.46539   0.62032   0.60656   0.11120
H          H       0.34630   0.23537   0.65319   0.38114
H          H       0.02157   0.60933   0.58571   0.11921
H          H       0.94581   0.82289   0.65801   0.11683
H          H       0.99139   0.59593   0.72518   0.12540
H          H       0.94105   0.67387   0.53367   0.11670
H          H       0.00387   0.89638   0.46683   0.10945
H          H       0.04602   0.95869   0.53813   0.11315
H          H       0.03461   0.87968   0.60656   0.11121
H          H       0.15370   0.26463   0.65319   0.38115
H          H       0.60933   0.02157   0.08571   0.11927
H          H       0.82289   0.94581   0.15800   0.11682
H          H       0.59593   0.99139   0.22518   0.12535
H          H       0.67387   0.94105   0.03367   0.11668
H          H       0.89638   0.00387   0.96683   0.10927
H          H       0.95869   0.04602   0.03812   0.11314
H          H       0.87968   0.03461   0.10656   0.11113
H          H       0.26463   0.15370   0.15318   0.38117
H          H       0.89067   0.47843   0.08571   0.11926
H          H       0.67711   0.55419   0.15800   0.11685
H          H       0.90407   0.50861   0.22518   0.12534
H          H       0.82613   0.55895   0.03367   0.11663
H          H       0.60361   0.49613   0.96683   0.10929
H          H       0.54131   0.45398   0.03812   0.11316
H          H       0.62032   0.46539   0.10656   0.11115
H          H       0.23537   0.34630   0.15318   0.38113
H          H       0.47843   0.60933   0.08571   0.11928
H          H       0.55419   0.82289   0.15800   0.11677
H          H       0.50861   0.59593   0.22518   0.12534
H          H       0.55895   0.67387   0.03367   0.11668
H          H       0.49613   0.89638   0.96683   0.10928
H          H       0.45398   0.95869   0.03812   0.11315
H          H       0.46539   0.87968   0.10656   0.11113
H          H       0.34630   0.26463   0.15318   0.38115
H          H       0.02157   0.89067   0.08571   0.11922
H          H       0.94581   0.67711   0.15800   0.11687
H          H       0.99139   0.90407   0.22518   0.12533
H          H       0.94105   0.82613   0.03367   0.11666
H          H       0.00387   0.60361   0.96683   0.10929
H          H       0.04602   0.54131   0.03812   0.11316
H          H       0.03461   0.62032   0.10656   0.11114
H          H       0.15370   0.23537   0.15318   0.38115
H          H       0.39067   0.52157   0.41429   0.11933
H          H       0.17711   0.44581   0.34200   0.11685
H          H       0.40407   0.49139   0.27483   0.12524
H          H       0.32613   0.44105   0.46633   0.11666
H          H       0.10361   0.50387   0.53317   0.10965
H          H       0.04131   0.54602   0.46188   0.11318
H          H       0.12032   0.53461   0.39344   0.11106
H          H       0.73537   0.65370   0.34682   0.38111
H          H       0.10933   0.97842   0.41429   0.11939
H          H       0.32289   0.05419   0.34200   0.11681
H          H       0.09593   0.00861   0.27483   0.12523
H          H       0.17387   0.05895   0.46633   0.11667
H          H       0.39639   0.99613   0.53317   0.10965
H          H       0.45869   0.95398   0.46188   0.11316
H          H       0.37968   0.96539   0.39344   0.11109
H          H       0.76463   0.84630   0.34682   0.38115
H          H       0.52157   0.10933   0.41429   0.11935
H          H       0.44581   0.32289   0.34200   0.11683
H          H       0.49139   0.09593   0.27483   0.12523
H          H       0.44105   0.17387   0.46633   0.11668
H          H       0.50387   0.39639   0.53317   0.10964
H          H       0.54602   0.45869   0.46188   0.11320
H          H       0.53461   0.37968   0.39344   0.11108
H          H       0.65370   0.76463   0.34682   0.38118
H          H       0.97842   0.39067   0.41429   0.11940
H          H       0.05419   0.17711   0.34200   0.11684
H          H       0.00861   0.40407   0.27483   0.12524
H          H       0.05895   0.32613   0.46633   0.11665
H          H       0.99613   0.10361   0.53317   0.10965
H          H       0.95398   0.04131   0.46188   0.11317
H          H       0.96539   0.12032   0.39344   0.11108
H          H       0.84630   0.73537   0.34682   0.38110
C          C       0.40584   0.99214   0.84480  -0.04451
C          C       0.36070   0.99524   0.88380  -0.12048
C          C       0.27756   0.01623   0.88365   0.06467
C          C       0.24110   0.03643   0.84348  -0.11774
C          C       0.28639   0.03522   0.80443  -0.04502
C          C       0.36872   0.01230   0.80491  -0.09023
C          C       0.24522   0.05819   0.76280   0.59268
C          C       0.22907   0.01334   0.92460   0.05740
C          C       0.26392   0.03573   0.96485  -0.13395
C          C       0.21855   0.03040   0.00377  -0.04670
C          C       0.13788   0.00153   0.00276  -0.08932
C          C       0.10296   0.97863   0.96292  -0.08126
C          C       0.14795   0.98489   0.92417  -0.11004
C          C       0.25702   0.05541   0.04577   0.59423
C          C       0.49260   0.96360   0.84571   0.60050
C          C       0.09416   0.50785   0.84480  -0.04451
C          C       0.13930   0.50476   0.88380  -0.12045
C          C       0.22244   0.48377   0.88365   0.06472
C          C       0.25890   0.46357   0.84348  -0.11782
C          C       0.21361   0.46478   0.80443  -0.04501
C          C       0.13128   0.48770   0.80491  -0.09022
C          C       0.25478   0.44181   0.76280   0.59273
C          C       0.27093   0.48666   0.92460   0.05745
C          C       0.23608   0.46427   0.96485  -0.13396
C          C       0.28145   0.46960   0.00377  -0.04668
C          C       0.36212   0.49847   0.00276  -0.08936
C          C       0.39704   0.52137   0.96292  -0.08126
C          C       0.35205   0.51511   0.92417  -0.11011
C          C       0.24298   0.44459   0.04577   0.59428
C          C       0.00740   0.53640   0.84571   0.60049
C          C       0.50785   0.40584   0.84480  -0.04451
C          C       0.50476   0.36070   0.88380  -0.12045
C          C       0.48377   0.27756   0.88365   0.06471
C          C       0.46357   0.24110   0.84348  -0.11779
C          C       0.46478   0.28639   0.80443  -0.04503
C          C       0.48770   0.36872   0.80491  -0.09022
C          C       0.44181   0.24522   0.76280   0.59270
C          C       0.48666   0.22907   0.92460   0.05740
C          C       0.46427   0.26392   0.96485  -0.13393
C          C       0.46960   0.21855   0.00377  -0.04677
C          C       0.49847   0.13788   0.00276  -0.08928
C          C       0.52137   0.10296   0.96292  -0.08127
C          C       0.51511   0.14795   0.92417  -0.11004
C          C       0.44459   0.25702   0.04577   0.59428
C          C       0.53640   0.49260   0.84571   0.60050
C          C       0.99214   0.09416   0.84480  -0.04443
C          C       0.99524   0.13930   0.88380  -0.12051
C          C       0.01623   0.22243   0.88365   0.06470
C          C       0.03643   0.25890   0.84348  -0.11782
C          C       0.03522   0.21361   0.80443  -0.04496
C          C       0.01230   0.13128   0.80491  -0.09026
C          C       0.05819   0.25478   0.76280   0.59268
C          C       0.01334   0.27093   0.92460   0.05745
C          C       0.03573   0.23608   0.96485  -0.13396
C          C       0.03040   0.28145   0.00377  -0.04668
C          C       0.00153   0.36212   0.00276  -0.08938
C          C       0.97863   0.39704   0.96292  -0.08124
C          C       0.98489   0.35205   0.92417  -0.11011
C          C       0.05541   0.24298   0.04577   0.59426
C          C       0.96360   0.00740   0.84571   0.60043
C          C       0.59416   0.49214   0.65520  -0.04422
C          C       0.63930   0.49524   0.61620  -0.12066
C          C       0.72243   0.51623   0.61635   0.06473
C          C       0.75890   0.53643   0.65652  -0.11785
C          C       0.71361   0.53521   0.69558  -0.04475
C          C       0.63128   0.51230   0.69509  -0.09044
C          C       0.75478   0.55819   0.73721   0.59248
C          C       0.77093   0.51334   0.57540   0.05754
C          C       0.73608   0.53573   0.53516  -0.13431
C          C       0.78145   0.53040   0.49624  -0.04658
C          C       0.86212   0.50153   0.49724  -0.08961
C          C       0.89704   0.47863   0.53709  -0.08147
C          C       0.85205   0.48489   0.57584  -0.10986
C          C       0.74298   0.55541   0.45423   0.59429
C          C       0.50740   0.46360   0.65430   0.60056
C          C       0.90583   0.00786   0.65520  -0.04425
C          C       0.86070   0.00476   0.61620  -0.12065
C          C       0.77756   0.98377   0.61635   0.06470
C          C       0.74110   0.96357   0.65652  -0.11782
C          C       0.78639   0.96478   0.69558  -0.04464
C          C       0.86872   0.98770   0.69509  -0.09054
C          C       0.74522   0.94181   0.73721   0.59228
C          C       0.72907   0.98666   0.57540   0.05753
C          C       0.76392   0.96427   0.53516  -0.13435
C          C       0.71855   0.96960   0.49624  -0.04669
C          C       0.63788  -0.00153   0.49724  -0.08955
C          C       0.60296   0.02137   0.53709  -0.08135
C          C       0.64795   0.01511   0.57584  -0.10982
C          C       0.75702   0.94459   0.45423   0.59433
C          C       0.99260   0.03640   0.65430   0.60044
C          C       0.49214   0.90583   0.65520  -0.04421
C          C       0.49524   0.86070   0.61620  -0.12064
C          C       0.51623   0.77756   0.61635   0.06472
C          C       0.53643   0.74110   0.65652  -0.11779
C          C       0.53521   0.78639   0.69558  -0.04471
C          C       0.51230   0.86872   0.69509  -0.09054
C          C       0.55819   0.74522   0.73721   0.59241
C          C       0.51334   0.72907   0.57540   0.05749
C          C       0.53573   0.76392   0.53516  -0.13435
C          C       0.53040   0.71855   0.49624  -0.04668
C          C       0.50153   0.63788   0.49724  -0.08948
C          C       0.47863   0.60296   0.53709  -0.08136
C          C       0.48489   0.64795   0.57584  -0.10981
C          C       0.55541   0.75702   0.45423   0.59431
C          C       0.46360   0.99260   0.65430   0.60046
C          C       0.00786   0.59416   0.65520  -0.04426
C          C       0.00476   0.63930   0.61620  -0.12066
C          C       0.98377   0.72243   0.61635   0.06480
C          C       0.96357   0.75890   0.65652  -0.11794
C          C       0.96478   0.71361   0.69558  -0.04471
C          C       0.98770   0.63128   0.69509  -0.09042
C          C       0.94181   0.75478   0.73721   0.59244
C          C       0.98666   0.77093   0.57540   0.05753
C          C       0.96427   0.73608   0.53516  -0.13430
C          C       0.96960   0.78145   0.49624  -0.04661
C          C      -0.00153   0.86212   0.49724  -0.08963
C          C       0.02137   0.89704   0.53709  -0.08143
C          C       0.01511   0.85205   0.57584  -0.10992
C          C       0.94459   0.74298   0.45423   0.59435
C          C       0.03640   0.50740   0.65430   0.60055
C          C       0.59416   0.00786   0.15520  -0.04431
C          C       0.63930   0.00476   0.11620  -0.12057
C          C       0.72243   0.98377   0.11635   0.06475
C          C       0.75890   0.96357   0.15652  -0.11784
C          C       0.71361   0.96478   0.19558  -0.04484
C          C       0.63128   0.98770   0.19509  -0.09038
C          C       0.75478   0.94181   0.23721   0.59244
C          C       0.77093   0.98666   0.07540   0.05744
C          C       0.73608   0.96427   0.03516  -0.13410
C          C       0.78145   0.96960   0.99624  -0.04670
C          C       0.86212  -0.00153   0.99724  -0.08933
C          C       0.89704   0.02137   0.03709  -0.08134
C          C       0.85205   0.01511   0.07584  -0.10992
C          C       0.74298   0.94459   0.95423   0.59439
C          C       0.50740   0.03640   0.15430   0.60045
C          C       0.90583   0.49214   0.15520  -0.04423
C          C       0.86070   0.49524   0.11620  -0.12067
C          C       0.77756   0.51623   0.11635   0.06474
C          C       0.74110   0.53643   0.15652  -0.11779
C          C       0.78639   0.53521   0.19558  -0.04476
C          C       0.86872   0.51230   0.19509  -0.09050
C          C       0.74522   0.55819   0.23721   0.59244
C          C       0.72907   0.51334   0.07540   0.05751
C          C       0.76392   0.53573   0.03516  -0.13424
C          C       0.71855   0.53040   0.99624  -0.04658
C          C       0.63788   0.50153   0.99724  -0.08931
C          C       0.60296   0.47863   0.03709  -0.08124
C          C       0.64795   0.48489   0.07584  -0.10988
C          C       0.75702   0.55541   0.95423   0.59439
C          C       0.99260   0.46360   0.15430   0.60041
C          C       0.49214   0.59416   0.15520  -0.04430
C          C       0.49524   0.63930   0.11620  -0.12060
C          C       0.51623   0.72243   0.11635   0.06474
C          C       0.53643   0.75890   0.15652  -0.11771
C          C       0.53521   0.71361   0.19558  -0.04500
C          C       0.51230   0.63128   0.19509  -0.09028
C          C       0.55819   0.75478   0.23721   0.59251
C          C       0.51334   0.77093   0.07540   0.05743
C          C       0.53573   0.73608   0.03516  -0.13415
C          C       0.53040   0.78145   0.99624  -0.04655
C          C       0.50153   0.86212   0.99724  -0.08940
C          C       0.47863   0.89704   0.03709  -0.08131
C          C       0.48489   0.85205   0.07584  -0.10990
C          C       0.55541   0.74298   0.95423   0.59429
C          C       0.46360   0.50740   0.15430   0.60047
C          C       0.00786   0.90583   0.15520  -0.04427
C          C       0.00476   0.86070   0.11620  -0.12064
C          C       0.98377   0.77756   0.11635   0.06477
C          C       0.96357   0.74110   0.15652  -0.11779
C          C       0.96478   0.78639   0.19558  -0.04475
C          C       0.98770   0.86872   0.19509  -0.09051
C          C       0.94181   0.74522   0.23721   0.59239
C          C       0.98666   0.72907   0.07540   0.05750
C          C       0.96427   0.76392   0.03516  -0.13426
C          C       0.96960   0.71855   0.99624  -0.04656
C          C      -0.00153   0.63788   0.99724  -0.08932
C          C       0.02137   0.60296   0.03709  -0.08128
C          C       0.01511   0.64795   0.07584  -0.10988
C          C       0.94459   0.75702   0.95423   0.59435
C          C       0.03640   0.99260   0.15430   0.60038
C          C       0.40584   0.50785   0.34480  -0.04433
C          C       0.36070   0.50476   0.38380  -0.12068
C          C       0.27756   0.48377   0.38365   0.06483
C          C       0.24110   0.46357   0.34348  -0.11779
C          C       0.28639   0.46478   0.30443  -0.04496
C          C       0.36872   0.48770   0.30491  -0.09026
C          C       0.24522   0.44181   0.26279   0.59255
C          C       0.22907   0.48666   0.42460   0.05751
C          C       0.26392   0.46427   0.46485  -0.13420
C          C       0.21855   0.46960   0.50377  -0.04669
C          C       0.13788   0.49847   0.50276  -0.08946
C          C       0.10296   0.52137   0.46291  -0.08143
C          C       0.14795   0.51511   0.42417  -0.11002
C          C       0.25702   0.44459   0.54577   0.59418
C          C       0.49260   0.53640   0.34571   0.60040
C          C       0.09416   0.99214   0.34480  -0.04434
C          C       0.13930   0.99524   0.38380  -0.12065
C          C       0.22243   0.01623   0.38365   0.06475
C          C       0.25890   0.03643   0.34348  -0.11778
C          C       0.21361   0.03522   0.30443  -0.04495
C          C       0.13128   0.01230   0.30491  -0.09024
C          C       0.25478   0.05819   0.26279   0.59254
C          C       0.27093   0.01334   0.42460   0.05751
C          C       0.23608   0.03573   0.46485  -0.13420
C          C       0.28145   0.03040   0.50377  -0.04668
C          C       0.36212   0.00153   0.50276  -0.08947
C          C       0.39704   0.97863   0.46291  -0.08143
C          C       0.35205   0.98489   0.42417  -0.11003
C          C       0.24298   0.05541   0.54577   0.59409
C          C       0.00740   0.96360   0.34571   0.60034
C          C       0.50785   0.09416   0.34480  -0.04435
C          C       0.50476   0.13930   0.38380  -0.12065
C          C       0.48377   0.22243   0.38365   0.06481
C          C       0.46357   0.25890   0.34348  -0.11780
C          C       0.46478   0.21361   0.30443  -0.04495
C          C       0.48770   0.13128   0.30491  -0.09023
C          C       0.44181   0.25478   0.26279   0.59249
C          C       0.48666   0.27093   0.42460   0.05749
C          C       0.46427   0.23608   0.46485  -0.13421
C          C       0.46960   0.28145   0.50377  -0.04669
C          C       0.49847   0.36212   0.50276  -0.08944
C          C       0.52137   0.39704   0.46291  -0.08152
C          C       0.51511   0.35205   0.42417  -0.11001
C          C       0.44459   0.24298   0.54577   0.59415
C          C       0.53640   0.00740   0.34571   0.60035
C          C       0.99214   0.40584   0.34480  -0.04433
C          C       0.99524   0.36070   0.38380  -0.12072
C          C       0.01623   0.27756   0.38365   0.06480
C          C       0.03643   0.24110   0.34348  -0.11778
C          C       0.03522   0.28639   0.30443  -0.04497
C          C       0.01230   0.36872   0.30491  -0.09026
C          C       0.05819   0.24522   0.26279   0.59256
C          C       0.01334   0.22907   0.42460   0.05748
C          C       0.03573   0.26392   0.46485  -0.13421
C          C       0.03040   0.21855   0.50377  -0.04668
C          C       0.00153   0.13788   0.50276  -0.08947
C          C       0.97863   0.10296   0.46291  -0.08142
C          C       0.98489   0.14795   0.42417  -0.10997
C          C       0.05541   0.25702   0.54577   0.59413
C          C       0.96360   0.49260   0.34571   0.60041
O          O       0.28518   0.07924   0.72872  -0.57954
O          O       0.16684   0.05635   0.76207  -0.52393
O          O       0.33560   0.05993   0.04661  -0.53938
O          O       0.21509   0.07133   0.07991  -0.57911
O          O       0.67460   0.84522   0.84644  -0.83947
O          O       0.52771   0.95259   0.80887  -0.54335
O          O       0.52439   0.95230   0.88358  -0.55875
O          O       0.21481   0.42076   0.72872  -0.57954
O          O       0.33316   0.44365   0.76207  -0.52397
O          O       0.16440   0.44007   0.04661  -0.53934
O          O       0.28491   0.42867   0.07991  -0.57916
O          O       0.82540   0.65477   0.84644  -0.83953
O          O       0.97229   0.54741   0.80887  -0.54333
O          O       0.97561   0.54770   0.88358  -0.55877
O          O       0.42076   0.28518   0.72872  -0.57953
O          O       0.44365   0.16684   0.76207  -0.52395
O          O       0.44007   0.33560   0.04661  -0.53940
O          O       0.42867   0.21509   0.07991  -0.57912
O          O       0.65477   0.67459   0.84644  -0.83951
O          O       0.54741   0.52771   0.80887  -0.54335
O          O       0.54770   0.52439   0.88358  -0.55876
O          O       0.07924   0.21481   0.72872  -0.57954
O          O       0.05635   0.33316   0.76207  -0.52395
O          O       0.05993   0.16440   0.04661  -0.53933
O          O       0.07133   0.28491   0.07991  -0.57914
O          O       0.84522   0.82540   0.84644  -0.83949
O          O       0.95259   0.97229   0.80887  -0.54335
O          O       0.95230   0.97561   0.88358  -0.55873
O          O       0.71481   0.57924   0.77128  -0.57920
O          O       0.83316   0.55635   0.73793  -0.52400
O          O       0.66440   0.55993   0.45339  -0.53927
O          O       0.78491   0.57133   0.42009  -0.57930
O          O       0.32540   0.34522   0.65357  -0.83951
O          O       0.47229   0.45259   0.69113  -0.54309
O          O       0.47561   0.45230   0.61643  -0.55913
O          O       0.78518   0.92076   0.77128  -0.57915
O          O       0.66684   0.94365   0.73793  -0.52385
O          O       0.83560   0.94007   0.45339  -0.53938
O          O       0.71508   0.92867   0.42009  -0.57925
O          O       0.17460   0.15478   0.65357  -0.83951
O          O       0.02771   0.04741   0.69113  -0.54306
O          O       0.02439   0.04770   0.61643  -0.55910
O          O       0.57924   0.78518   0.77128  -0.57920
O          O       0.55635   0.66684   0.73793  -0.52390
O          O       0.55993   0.83560   0.45339  -0.53937
O          O       0.57133   0.71508   0.42009  -0.57922
O          O       0.34522   0.17460   0.65357  -0.83952
O          O       0.45259   0.02771   0.69113  -0.54308
O          O       0.45230   0.02439   0.61643  -0.55912
O          O       0.92076   0.71481   0.77128  -0.57917
O          O       0.94365   0.83316   0.73793  -0.52402
O          O       0.94007   0.66440   0.45339  -0.53934
O          O       0.92867   0.78491   0.42009  -0.57928
O          O       0.15478   0.32540   0.65357  -0.83953
O          O       0.04741   0.47229   0.69113  -0.54307
O          O       0.04770   0.47561   0.61643  -0.55914
O          O       0.71481   0.92076   0.27128  -0.57923
O          O       0.83316   0.94365   0.23793  -0.52400
O          O       0.66440   0.94007   0.95339  -0.53930
O          O       0.78491   0.92867   0.92010  -0.57938
O          O       0.32540   0.15478   0.15357  -0.83953
O          O       0.47229   0.04741   0.19113  -0.54313
O          O       0.47561   0.04770   0.11643  -0.55894
O          O       0.78518   0.57924   0.27128  -0.57932
O          O       0.66684   0.55635   0.23793  -0.52387
O          O       0.83560   0.55993   0.95339  -0.53939
O          O       0.71508   0.57133   0.92010  -0.57934
O          O       0.17460   0.34522   0.15357  -0.83948
O          O       0.02771   0.45259   0.19113  -0.54314
O          O       0.02439   0.45230   0.11643  -0.55894
O          O       0.57924   0.71481   0.27128  -0.57925
O          O       0.55635   0.83316   0.23793  -0.52401
O          O       0.55993   0.66440   0.95339  -0.53926
O          O       0.57133   0.78491   0.92010  -0.57936
O          O       0.34522   0.32540   0.15357  -0.83951
O          O       0.45259   0.47229   0.19113  -0.54314
O          O       0.45230   0.47561   0.11643  -0.55895
O          O       0.92076   0.78518   0.27128  -0.57926
O          O       0.94365   0.66684   0.23793  -0.52389
O          O       0.94007   0.83560   0.95339  -0.53942
O          O       0.92867   0.71508   0.92010  -0.57932
O          O       0.15478   0.17460   0.15357  -0.83951
O          O       0.04741   0.02771   0.19113  -0.54311
O          O       0.04770   0.02439   0.11643  -0.55893
O          O       0.28518   0.42076   0.22872  -0.57941
O          O       0.16684   0.44365   0.26207  -0.52393
O          O       0.33560   0.44007   0.54661  -0.53941
O          O       0.21509   0.42867   0.57991  -0.57905
O          O       0.67460   0.65477   0.34644  -0.83950
O          O       0.52771   0.54741   0.30887  -0.54320
O          O       0.52439   0.54770   0.38357  -0.55879
O          O       0.21481   0.07924   0.22872  -0.57941
O          O       0.33316   0.05635   0.26207  -0.52394
O          O       0.16440   0.05993   0.54661  -0.53933
O          O       0.28491   0.07133   0.57991  -0.57904
O          O       0.82540   0.84522   0.34644  -0.83950
O          O       0.97229   0.95259   0.30887  -0.54320
O          O       0.97561   0.95230   0.38357  -0.55880
O          O       0.42076   0.21481   0.22872  -0.57935
O          O       0.44365   0.33316   0.26207  -0.52394
O          O       0.44007   0.16440   0.54661  -0.53936
O          O       0.42867   0.28491   0.57991  -0.57906
O          O       0.65477   0.82540   0.34644  -0.83954
O          O       0.54741   0.97229   0.30887  -0.54320
O          O       0.54770   0.97561   0.38357  -0.55878
O          O       0.07924   0.28518   0.22872  -0.57941
O          O       0.05635   0.16684   0.26207  -0.52393
O          O       0.05993   0.33560   0.54661  -0.53936
O          O       0.07133   0.21509   0.57991  -0.57905
O          O       0.84522   0.67459   0.34644  -0.83949
O          O       0.95259   0.52771   0.30887  -0.54321
O          O       0.95230   0.52439   0.38357  -0.55881

