data_crystal

_cell_length_a 27.78059
_cell_length_b 9.06864
_cell_length_c 7.77678
_cell_angle_alpha 89.96200
_cell_angle_beta  90.09249
_cell_angle_gamma 90.04281

_symmetry_space_group_name_	'P 1'
_symmetry_space_group_name_H-M	'P 1'

loop_
_symmetry_equiv_pos_as_xyz
  x,y,z

loop_
_atom_site_label
_atom_site_type_symbol
_atom_site_fract_x
_atom_site_fract_y
_atom_site_fract_z
_atom_site_charge
O 	O 	0.50000 0.28839 0.64276 -0.37900
O 	O 	0.50000 0.71161 0.35724 -0.37900
O 	O 	0.50000 0.71161 0.64276 -0.38000
O 	O 	0.50000 0.28839 0.35724 -0.37800
C 	C 	0.49998 0.22002 0.50003 0.33900
C 	C 	0.50000 0.77998 0.49996 0.34200
O 	O 	0.43026 0.50000 0.64277 -0.37200
O 	O 	0.56974 0.50000 0.35723 -0.37100
O 	O 	0.56974 0.50000 0.64277 -0.37200
O 	O 	0.43026 0.50000 0.35723 -0.37200
C 	C 	0.40725 0.49875 0.49973 0.31600
C 	C 	0.59274 0.50122 0.50000 0.31600
Cu	Cu	0.50000 0.50000 0.66908 0.93000
Cu	Cu	0.50000 0.50000 0.33092 0.93000
C 	C 	0.17672 0.35878 0.49407 0.18900
C 	C 	0.82313 0.63833 0.50415 0.18800
C 	C 	0.17853 0.61986 0.45686 0.18800
C 	C 	0.82107 0.37994 0.44701 0.18900
O 	O 	0.20047 0.23107 0.52123 -0.19300
O 	O 	0.79950 0.76391 0.54291 -0.19700
O 	O 	0.20409 0.74571 0.44099 -0.19200
O 	O 	0.79528 0.25595 0.41960 -0.19300
N 	N 	0.20185 0.48801 0.47756 -0.15000
N 	N 	0.79795 0.51047 0.47810 -0.15000
C 	C 	0.27750 0.55777 0.62231 0.12300
C 	C 	0.72262 0.43954 0.62233 0.12400
C 	C 	0.28023 0.41172 0.35848 0.12200
C 	C 	0.71959 0.58891 0.36132 0.12300
C 	C 	0.32774 0.55945 0.62845 -0.06700
C 	C 	0.67230 0.43857 0.62870 -0.06700
C 	C 	0.33077 0.42091 0.36235 -0.06800
C 	C 	0.66919 0.58066 0.36462 -0.06900
C 	C 	0.25361 0.48572 0.48596 0.00600
C 	C 	0.74631 0.51271 0.48691 0.00600
C 	C 	0.10162 0.49326 0.46634 0.05700
C 	C 	0.89807 0.50528 0.46626 0.05600
C 	C 	0.12626 0.35863 0.48505 -0.07700
C 	C 	0.87352 0.63898 0.49351 -0.07900
C 	C 	0.12809 0.62512 0.45293 -0.08000
C 	C 	0.87153 0.37430 0.44432 -0.08000
C 	C 	0.10005 0.22738 0.49713 0.00700
C 	C 	0.89973 0.76962 0.51251 0.00700
C 	C 	0.10374 0.75909 0.43519 0.00600
C 	C 	0.89584 0.24105 0.41976 0.00400
C 	C 	0.35451 0.49242 0.49784 -0.03400
C 	C 	0.64547 0.50734 0.49874 -0.03300
H 	H 	0.11808 0.12268 0.51497 0.04200
H 	H 	0.88173 0.87360 0.53602 0.04100
H 	H 	0.12327 0.86161 0.41987 0.04000
H 	H 	0.87626 0.13925 0.39881 0.04100
C 	C 	0.97345 0.36527 0.45080 0.01400
C 	C 	0.02620 0.63357 0.45807 0.01400
C 	C 	0.97532 0.63649 0.47270 0.01400
C 	C 	0.02436 0.36186 0.46542 0.01500
C 	C 	0.94911 0.50238 0.46275 -0.02900
C 	C 	0.05056 0.49620 0.46279 -0.02800
C 	C 	0.94585 0.23619 0.42412 -0.05800
C 	C 	0.05374 0.76354 0.43837 -0.05800
C 	C 	0.94966 0.76887 0.50083 -0.05800
C 	C 	0.05008 0.22864 0.48640 -0.05700
H 	H 	0.96208 0.13009 0.40120 0.04100
H 	H 	0.03746 0.87013 0.42001 0.04000
H 	H 	0.96741 0.87316 0.52108 0.04000
H 	H 	0.03230 0.12389 0.50173 0.04100
C 	C 	0.49998 0.06542 0.50004 -0.03700
C 	C 	0.49999 0.93459 0.49995 -0.04500
N 	N 	0.50000 0.50000 0.07682 -0.12300
N 	N 	0.50000 0.50000 0.92318 -0.12600
H 	H 	0.35170 0.37151 0.26033 0.06700
H 	H 	0.64859 0.63264 0.26291 0.06900
H 	H 	0.34571 0.61783 0.73178 0.07000
H 	H 	0.65433 0.37958 0.73145 0.07000
O 	O 	0.25573 0.34483 0.22321 -0.20200
C 	C 	0.27328 0.20109 0.18791 0.03700
H 	H 	0.24212 0.12419 0.18981 0.04200
H 	H 	0.29910 0.15777 0.28580 0.03400
C 	C 	0.29554 0.19688 0.00778 -0.05700
H 	H 	0.26675 0.21221 0.91016 0.05200
H 	H 	0.32194 0.28799 0.99280 0.05100
C 	C 	0.32086 0.05056 0.97373 -0.14900
H 	H 	0.35093 0.03468 0.06620 0.07300
H 	H 	0.33575 0.05052 0.84129 0.07200
H 	H 	0.29513 0.95754 0.98590 0.06400
O 	O 	0.74340 0.65768 0.22668 -0.20600
C 	C 	0.73163 0.80969 0.21713 0.04000
H 	H 	0.76492 0.87397 0.24315 0.04400
H 	H 	0.70430 0.84719 0.31279 0.03400
C 	C 	0.71424 0.84681 0.03548 -0.06500
H 	H 	0.74319 0.82095 0.94173 0.05600
H 	H 	0.68219 0.77858 0.00377 0.05500
C 	C 	0.70110 0.00965 0.01886 -0.14200
H 	H 	0.67119 0.03757 0.10769 0.07000
H 	H 	0.68938 0.03332 0.88508 0.07100
H 	H 	0.73273 0.07994 0.04911 0.06800
O 	O 	0.25169 0.64010 0.73949 -0.19700
C 	C 	0.23792 0.54946 0.87851 0.04100
H 	H 	0.26840 0.54024 0.97079 0.03600
H 	H 	0.22705 0.43660 0.83664 0.03400
C 	C 	0.19439 0.61714 0.96908 -0.06100
H 	H 	0.16329 0.61930 0.87892 0.05400
H 	H 	0.18449 0.54685 0.08068 0.05600
C 	C 	0.20450 0.77358 0.03202 -0.13300
H 	H 	0.23650 0.77462 0.11774 0.07400
H 	H 	0.17292 0.81510 0.10465 0.06700
H 	H 	0.21089 0.84861 0.92146 0.07200
O 	O 	0.74891 0.35867 0.74035 -0.19800
C 	C 	0.75492 0.43973 0.89443 0.04100
H 	H 	0.73392 0.38510 0.99804 0.03700
H 	H 	0.74222 0.55631 0.88677 0.03300
C 	C 	0.80825 0.44275 0.94504 -0.05700
H 	H 	0.82917 0.50085 0.84401 0.05500
H 	H 	0.81251 0.50530 0.06689 0.05700
C 	C 	0.82891 0.28820 0.97001 -0.14300
H 	H 	0.80833 0.22763 0.06978 0.07300
H 	H 	0.86700 0.29663 0.01243 0.06300
H 	H 	0.82772 0.22549 0.84743 0.07800
