data_crystal

_cell_length_a 6.94473
_cell_length_b 13.47534
_cell_length_c 20.12469
_cell_angle_alpha 104.13344
_cell_angle_beta  90.32328
_cell_angle_gamma 90.32503

_symmetry_space_group_name_	'P 1'
_symmetry_space_group_name_H-M	'P 1'

loop_
_symmetry_equiv_pos_as_xyz
  x,y,z

loop_
_atom_site_label
_atom_site_type_symbol
_atom_site_fract_x
_atom_site_fract_y
_atom_site_fract_z
_atom_site_charge
O 	O 	0.50678 0.60006 0.44995 -0.48000
O 	O 	0.17984 0.59711 0.58941 -0.49100
O 	O 	0.00457 0.39994 0.55005 -0.47900
C 	C 	0.34875 0.61899 0.61692 0.37500
O 	O 	0.17738 0.61216 0.45289 -0.48800
O 	O 	0.00210 0.41510 0.41256 -0.48200
C 	C 	0.34593 0.63889 0.43623 0.38700
O 	O 	0.50925 0.58490 0.58744 -0.48500
O 	O 	0.33757 0.43533 0.48693 -0.64300
V 	V 	0.06465 0.51200 0.50243 1.80900
O 	O 	0.67209 0.40289 0.41059 -0.49100
C 	C 	0.84014 0.38183 0.38285 0.36500
O 	O 	0.67454 0.38784 0.54711 -0.48800
C 	C 	0.84338 0.36102 0.56368 0.38600
V 	V 	0.56404 0.48800 0.49757 1.80800
O 	O 	0.84099 0.56467 0.51307 -0.64400
C 	C 	0.87430 0.10679 0.60794 -0.07200
H 	H 	0.86820 0.15632 0.51440 0.02800
H 	H 	0.89014 0.98079 0.69037 0.03800
H 	H 	0.88433 0.02680 0.58112 0.05100
C 	C 	0.85224 0.28354 0.60318 -0.10600
C 	C 	0.84744 0.31944 0.93302 0.02900
C 	C 	0.83824 0.39624 0.89801 -0.05100
C 	C 	0.84146 0.37207 0.82662 -0.02200
C 	C 	0.85417 0.26911 0.78805 -0.01100
C 	C 	0.86376 0.19069 0.82441 0.06600
C 	C 	0.85761 0.24132 0.71480 -0.01300
C 	C 	0.87068 0.13619 0.67984 0.03600
C 	C 	0.88011 0.06101 0.71671 -0.03900
C 	C 	0.87669 0.08761 0.78777 -0.05300
C 	C 	0.84855 0.31409 0.67474 0.01300
C 	C 	0.86512 0.18012 0.56985 0.03400
C 	C 	0.86017 0.21707 0.89698 -0.11700
H 	H 	0.83867 0.39508 0.69725 0.03300
H 	H 	0.84457 0.33983 0.98853 0.03400
H 	H 	0.83374 0.43597 0.80342 0.03600
H 	H 	0.82840 0.47538 0.92646 0.04200
H 	H 	0.88431 0.02623 0.81378 0.05400
C 	C 	0.69114 0.19557 0.23691 0.02400
C 	C 	0.83307 0.19453 0.29661 -0.02500
H 	H 	0.81419 0.14927 0.33544 0.04000
H 	H 	0.55593 0.14997 0.22595 0.03400
C 	C 	0.84832 0.31212 0.31214 -0.05800
C 	C 	0.70498 0.31407 0.25333 -0.05800
C 	C 	0.87803 0.30472 0.20469 0.15800
C 	C 	0.02190 0.30458 0.26319 -0.05800
C 	C 	0.00551 0.18609 0.24678 0.02100
C 	C 	0.86362 0.18794 0.18785 -0.12700
H 	H 	0.58178 0.36708 0.25619 0.05300
H 	H 	0.15748 0.34989 0.27398 0.05600
H 	H 	0.12825 0.13285 0.24368 0.03000
C 	C 	0.53837 0.72487 0.73087 -0.00400
C 	C 	0.45843 0.83527 0.75004 -0.00700
H 	H 	0.54236 0.90586 0.75064 0.03600
H 	H 	0.68844 0.70369 0.71495 0.04200
C 	C 	0.35665 0.81157 0.81227 -0.08300
C 	C 	0.43667 0.70202 0.79391 -0.00600
C 	C 	0.25435 0.66556 0.74977 -0.00700
C 	C 	0.17444 0.77596 0.76892 -0.00400
C 	C 	0.27613 0.79878 0.70587 -0.00700
C 	C 	0.35617 0.68919 0.68753 -0.08200
H 	H 	0.50238 0.66247 0.83071 0.03600
H 	H 	0.17037 0.59499 0.74920 0.03700
H 	H 	0.02443 0.79733 0.78484 0.04100
H 	H 	0.21036 0.83839 0.66911 0.03600
C 	C 	0.33505 0.89326 0.39181 -0.07300
H 	H 	0.32866 0.84369 0.48528 0.02700
H 	H 	0.32574 0.01907 0.30928 0.04000
H 	H 	0.32345 0.97324 0.41848 0.05100
C 	C 	0.35313 0.71650 0.39682 -0.10800
C 	C 	0.37961 0.68031 0.06723 0.02900
C 	C 	0.39028 0.60381 0.10242 -0.05700
C 	C 	0.38371 0.62804 0.17374 -0.02500
C 	C 	0.36517 0.73078 0.21203 -0.01300
C 	C 	0.35492 0.80901 0.17551 0.06500
C 	C 	0.35835 0.75864 0.28522 -0.01500
C 	C 	0.34370 0.86378 0.32000 0.03700
C 	C 	0.33631 0.93885 0.28303 -0.04100
C 	C 	0.34129 0.91209 0.21199 -0.05300
C 	C 	0.36365 0.68590 0.32536 0.01300
C 	C 	0.33855 0.81992 0.42995 0.03500
C 	C 	0.36183 0.78258 0.10297 -0.12100
H 	H 	0.37171 0.60481 0.30293 0.03100
H 	H 	0.38770 0.65985 0.01179 0.02800
H 	H 	0.39491 0.56443 0.19709 0.03500
H 	H 	0.40493 0.52483 0.07419 0.04300
H 	H 	0.33457 0.97332 0.18586 0.05300
O 	O 	0.20358 0.91492 0.91261 -0.48700
O 	O 	0.53571 0.88781 0.04712 -0.48600
O 	O 	0.71073 0.08495 0.08743 -0.48800
C 	C 	0.36739 0.86088 0.06370 0.39000
O 	O 	0.53301 0.90285 0.91060 -0.49500
O 	O 	0.70801 0.10009 0.94993 -0.47600
C 	C 	0.36413 0.88130 0.88300 0.37400
O 	O 	0.20630 0.89978 0.05010 -0.47700
O 	O 	0.37517 0.06458 0.01310 -0.64200
V 	V 	0.64820 0.98802 0.99757 1.80700
O 	O 	0.03803 0.11233 0.95284 -0.48300
C 	C 	0.86914 0.13903 0.93632 0.39000
O 	O 	0.04073 0.09730 0.08936 -0.49600
C 	C 	0.87254 0.11837 0.11708 0.40100
V 	V 	0.14878 0.01222 0.00236 1.80800
O 	O 	0.87193 0.93543 0.98690 -0.64900
O 	O 	0.89926 0.35726 0.15248 -0.22100
C 	C 	0.91436 0.46335 0.18183 0.09200
H 	H 	0.05216 0.48165 0.21085 0.01400
H 	H 	0.79152 0.49170 0.21650 0.01400
C 	C 	0.91167 0.51964 0.12491 -0.19400
H 	H 	0.77293 0.50516 0.09644 0.07900
H 	H 	0.92881 0.60322 0.14702 0.07600
H 	H 	0.03082 0.49246 0.08862 0.08100
