data_crystal

_cell_length_a 14.93011
_cell_length_b 15.55318
_cell_length_c 9.89887
_cell_angle_alpha 89.32138
_cell_angle_beta  92.83572
_cell_angle_gamma 90.24724

_symmetry_space_group_name_	'P 1'
_symmetry_space_group_name_H-M	'P 1'

loop_
_symmetry_equiv_pos_as_xyz
  x,y,z

loop_
_atom_site_label
_atom_site_type_symbol
_atom_site_fract_x
_atom_site_fract_y
_atom_site_fract_z
_atom_site_charge
C 	C 	0.38724 0.87398 0.49842 0.34100
C 	C 	0.38849 0.12658 0.49847 0.34200
C 	C 	0.88723 0.37398 0.49843 0.34300
C 	C 	0.88849 0.62658 0.49847 0.34300
C 	C 	0.28040 0.21840 0.37922 -0.09300
C 	C 	0.26836 0.79331 0.38170 -0.09600
C 	C 	0.78040 0.71841 0.37922 -0.09200
C 	C 	0.76837 0.29331 0.38167 -0.09700
C 	C 	0.70798 0.77207 0.38188 0.23800
C 	C 	0.69422 0.24128 0.38799 0.24300
C 	C 	0.20797 0.27206 0.38188 0.23700
C 	C 	0.19418 0.74132 0.38805 0.24400
C 	C 	0.68458 0.80840 0.50619 -0.16300
C 	C 	0.68002 0.19464 0.50816 -0.17700
C 	C 	0.18457 0.30839 0.50620 -0.16500
C 	C 	0.18002 0.69464 0.50819 -0.17400
C 	C 	0.33007 0.03301 0.10973 -0.04700
C 	C 	0.83008 0.53301 0.10974 -0.06400
C 	C 	0.26307 0.06640 0.01488 0.03500
C 	C 	0.76308 0.56642 0.01490 0.04600
C 	C 	0.27406 0.05657 0.87646 -0.06000
C 	C 	0.77406 0.55659 0.87647 -0.06900
C 	C 	0.34031 0.00116 0.84162 0.10500
C 	C 	0.84031 0.50118 0.84163 0.12600
C 	C 	0.42037 0.00398 0.91961 0.01500
C 	C 	0.92037 0.50399 0.91961 0.00600
C 	C 	0.41822 0.01079 0.06330 0.06300
C 	C 	0.91822 0.51079 0.06330 0.09200
C 	C 	0.57681 0.99280 0.07822 0.05300
C 	C 	0.07681 0.49280 0.07822 0.05700
C 	C 	0.61653 0.12379 0.50215 0.41400
C 	C 	0.61825 0.87725 0.50242 0.40700
C 	C 	0.11653 0.62379 0.50216 0.41300
C 	C 	0.11825 0.37724 0.50242 0.40600
C 	C 	0.57709 0.99488 0.93513 0.03700
C 	C 	0.07709 0.49488 0.93513 0.01500
C 	C 	0.38263 0.25181 0.72671 0.19900
C 	C 	0.39300 0.72944 0.70191 0.21500
C 	C 	0.88263 0.75180 0.72673 0.20000
C 	C 	0.89298 0.22945 0.70194 0.21400
C 	C 	0.35552 0.27194 0.85515 -0.11400
C 	C 	0.37584 0.69614 0.82945 -0.10600
C 	C 	0.85551 0.77193 0.85516 -0.11300
C 	C 	0.87582 0.19613 0.82949 -0.10700
C 	C 	0.76649 0.79164 0.87303 0.04700
C 	C 	0.78816 0.17747 0.86050 0.06600
C 	C 	0.26650 0.29164 0.87302 0.04600
C 	C 	0.28819 0.67746 0.86047 0.06800
C 	C 	0.70723 0.80143 0.76061 -0.08900
C 	C 	0.72015 0.18070 0.75858 -0.08800
C 	C 	0.20724 0.30143 0.76061 -0.08900
C 	C 	0.22018 0.68069 0.75857 -0.08600
C 	C 	0.73525 0.78677 0.62785 0.14200
C 	C 	0.73879 0.20622 0.62464 0.15300
C 	C 	0.23525 0.28676 0.62785 0.14100
C 	C 	0.23882 0.70620 0.62464 0.15400
C 	C 	0.31873 0.24743 0.61605 -0.06300
C 	C 	0.32174 0.74514 0.60569 -0.05900
C 	C 	0.81873 0.74743 0.61606 -0.06200
C 	C 	0.82172 0.24516 0.60571 -0.05900
C 	C 	0.33335 0.20274 0.49587 0.00300
C 	C 	0.32937 0.79927 0.49233 0.01800
C 	C 	0.83336 0.70275 0.49587 0.00400
C 	C 	0.82936 0.29929 0.49233 0.01500
H 	H 	0.29332 0.18652 0.28556 0.10200
H 	H 	0.27626 0.83139 0.29094 0.11700
H 	H 	0.79332 0.68653 0.28556 0.10200
H 	H 	0.77629 0.33139 0.29089 0.11300
H 	H 	0.40355 0.27320 0.94074 0.10100
H 	H 	0.43009 0.68534 0.90437 0.10500
H 	H 	0.90354 0.77319 0.94077 0.10300
H 	H 	0.93007 0.18532 0.90442 0.10300
H 	H 	0.74445 0.80446 0.97325 0.05100
H 	H 	0.77342 0.15623 0.96161 0.04100
H 	H 	0.24446 0.30447 0.97324 0.05000
H 	H 	0.27346 0.65624 0.96157 0.04400
H 	H 	0.63983 0.81835 0.78227 0.10700
H 	H 	0.65375 0.16562 0.78914 0.10700
H 	H 	0.13984 0.31836 0.78227 0.10700
H 	H 	0.15379 0.66560 0.78913 0.10900
H 	H 	0.63932 0.98724 0.13792 0.05400
H 	H 	0.13932 0.48723 0.13792 0.04700
N 	N 	0.49881 1.00000 0.14278 -0.20400
N 	N 	0.99881 0.50000 0.14278 -0.22500
N 	N 	0.49874 0.00000 0.85717 -0.22700
N 	N 	0.99874 0.50000 0.85717 -0.20900
O 	O 	0.40839 0.90838 0.61469 -0.38100
O 	O 	0.40839 0.09162 0.61469 -0.41500
O 	O 	0.90839 0.40838 0.61469 -0.38800
O 	O 	0.90839 0.59162 0.61469 -0.41000
O 	O 	0.40837 0.90838 0.38536 -0.40600
O 	O 	0.40837 0.09162 0.38536 -0.42100
O 	O 	0.90837 0.40838 0.38536 -0.41600
O 	O 	0.90837 0.59162 0.38536 -0.41600
O 	O 	0.59162 0.09161 0.61464 -0.44200
O 	O 	0.59162 0.90839 0.61464 -0.42300
O 	O 	0.09162 0.59161 0.61464 -0.43300
O 	O 	0.09162 0.40839 0.61464 -0.42800
O 	O 	0.59161 0.09161 0.38531 -0.42500
O 	O 	0.59161 0.90839 0.38531 -0.40300
O 	O 	0.09161 0.59161 0.38531 -0.41600
O 	O 	0.09161 0.40839 0.38531 -0.40900
Zn	Zn	0.50001 1.00000 0.65313 1.23400
Zn	Zn	0.00001 0.50000 0.65313 1.22600
Zn	Zn	0.49998 0.00000 0.34687 1.21800
Zn	Zn	0.99998 0.50000 0.34687 1.22500
C 	C 	0.20275 0.07465 0.77608 0.13600
N 	N 	0.14609 0.08796 0.69476 -0.08500
C 	C 	0.70275 0.57467 0.77610 0.14300
N 	N 	0.64608 0.58797 0.69479 -0.08300
Cl	Cl	0.29424 0.89746 0.82383 -0.27700
Cl	Cl	0.79423 0.39748 0.82382 -0.29600
C 	C 	0.66146 0.99121 0.87216 0.05100
N 	N 	0.72979 0.98845 0.82212 -0.08800
C 	C 	0.16145 0.49121 0.87216 0.04900
N 	N 	0.22979 0.48844 0.82213 -0.09500
Cl	Cl	0.49817 0.25133 0.70327 -0.31300
Cl	Cl	0.50386 0.73274 0.65547 -0.31900
Cl	Cl	0.99817 0.75132 0.70330 -0.30900
Cl	Cl	0.00385 0.23274 0.65551 -0.32100
Cl	Cl	0.64657 0.78449 0.22546 -0.31000
Cl	Cl	0.61713 0.24459 0.24641 -0.30200
Cl	Cl	0.14658 0.28450 0.22546 -0.31200
Cl	Cl	0.11693 0.74477 0.24664 -0.29300
C 	C 	0.29354 0.00876 0.23654 0.07300
N 	N 	0.25744 0.99281 0.33478 -0.06700
C 	C 	0.79353 0.50872 0.23653 0.10800
N 	N 	0.75743 0.49273 0.33473 -0.09200
C 	C 	0.17555 0.09333 0.05668 0.10400
N 	N 	0.10506 0.11302 0.08848 -0.07600
C 	C 	0.67556 0.59333 0.05670 0.10400
N 	N 	0.60506 0.61302 0.08851 -0.07300
