data_crystal

_cell_length_a 10.73325
_cell_length_b 9.74064
_cell_length_c 11.67381
_cell_angle_alpha 88.38991
_cell_angle_beta  93.87647
_cell_angle_gamma 91.83483

_symmetry_space_group_name_	'P 1'
_symmetry_space_group_name_H-M	'P 1'

loop_
_symmetry_equiv_pos_as_xyz
  x,y,z

loop_
_atom_site_label
_atom_site_type_symbol
_atom_site_fract_x
_atom_site_fract_y
_atom_site_fract_z
_atom_site_charge
C 	C 	0.26301 0.49841 0.49832 0.33400
C 	C 	0.92948 0.55501 0.40356 0.05300
C 	C 	0.94078 0.44867 0.59666 0.05300
C 	C 	0.05910 0.55073 0.40216 0.07000
C 	C 	0.87121 0.50426 0.50112 -0.12300
C 	C 	0.12873 0.49589 0.49779 -0.12600
C 	C 	0.41462 0.07336 0.42989 0.05500
C 	C 	0.59183 0.92939 0.56091 0.04500
C 	C 	0.57886 0.07354 0.57444 0.05800
C 	C 	0.41903 0.92556 0.42567 0.05000
C 	C 	0.30439 0.14276 0.36465 -0.12100
C 	C 	0.73695 0.50163 0.50101 0.32600
C 	C 	0.18369 0.11944 0.42831 -0.01500
C 	C 	0.06983 0.17098 0.35633 -0.15500
C 	C 	0.72609 0.88227 0.57818 -0.11200
C 	C 	0.75717 0.80615 0.69350 -0.01900
C 	C 	0.89813 0.79412 0.71712 -0.15800
C 	C 	0.64368 0.13732 0.68117 -0.12300
C 	C 	0.56504 0.11092 0.78532 -0.00900
C 	C 	0.63390 0.16187 0.89551 -0.16200
C 	C 	0.34719 0.85587 0.32480 -0.12400
C 	C 	0.41390 0.88026 0.21268 -0.01200
C 	C 	0.49968 0.50143 0.28452 0.31700
C 	C 	0.33498 0.82419 0.10972 -0.16100
C 	C 	0.49998 0.49859 0.71546 0.31900
C 	C 	0.49986 0.50352 0.16258 -0.10900
C 	C 	0.49939 0.49675 0.83736 -0.10400
C 	C 	0.49970 0.50192 0.05993 0.02900
C 	C 	0.49933 0.49862 0.94000 0.02500
C 	C 	0.07102 0.44427 0.59484 0.06800
Cu	Cu	0.50000 0.64066 0.50000 0.92700
Cu	Cu	0.50000 0.35934 0.50000 0.92700
H 	H 	0.13094 0.44729 0.76352 0.07900
H 	H 	0.05176 0.10763 0.27898 0.05600
H 	H 	0.98646 0.16334 0.40784 0.05800
H 	H 	0.16720 0.00878 0.44930 0.03100
H 	H 	0.19182 0.17216 0.51151 0.04800
H 	H 	0.32085 0.25160 0.34627 0.07100
H 	H 	0.28886 0.10605 0.27601 0.05500
H 	H 	0.93898 0.74285 0.64528 0.06600
H 	H 	0.94322 0.89766 0.72764 0.05200
H 	H 	0.91783 0.73253 0.79741 0.05400
H 	H 	0.72037 0.86157 0.76510 0.03000
H 	H 	0.11800 0.28825 0.70677 0.07800
H 	H 	0.71465 0.70161 0.69427 0.04900
H 	H 	0.75433 0.83020 0.50223 0.06700
H 	H 	0.79183 0.97221 0.57192 0.04800
H 	H 	0.71847 0.10085 0.91661 0.05600
H 	H 	0.66263 0.27178 0.88552 0.06800
H 	H 	0.57175 0.15014 0.96767 0.06100
H 	H 	0.47417 0.16217 0.77182 0.04600
H 	H 	0.54416 0.99903 0.79642 0.02900
H 	H 	0.73696 0.09580 0.70361 0.05300
H 	H 	0.66626 0.24648 0.66845 0.07300
H 	H 	0.80965 0.69214 0.32731 0.09000
H 	H 	0.31189 0.71332 0.12363 0.06800
H 	H 	0.24686 0.88101 0.09634 0.05500
H 	H 	0.38765 0.83707 0.03126 0.06100
H 	H 	0.43395 0.99124 0.19625 0.02800
H 	H 	0.50563 0.83032 0.21924 0.04400
H 	H 	0.33127 0.74658 0.33854 0.07500
H 	H 	0.24997 0.89037 0.31305 0.05300
H 	H 	0.79398 0.53097 0.27524 0.08900
H 	H 	0.91160 0.45800 0.76613 0.07200
H 	H 	0.89969 0.29761 0.71245 0.07300
H 	H 	0.09651 0.69906 0.28358 0.08100
H 	H 	0.08642 0.53783 0.23307 0.08000
H 	H 	0.08517 0.27967 0.32867 0.06700
N 	N 	0.50000 0.85207 0.50000 -0.18500
N 	N 	0.50000 0.14793 0.50000 -0.18700
N 	N 	0.14595 0.39048 0.69137 -0.17900
N 	N 	0.85846 0.60724 0.30402 -0.19100
N 	N 	0.87833 0.40044 0.69568 -0.18100
N 	N 	0.12050 0.59731 0.30216 -0.18400
O 	O 	0.31964 0.61874 0.49999 -0.37900
O 	O 	0.68036 0.38126 0.50001 -0.38000
O 	O 	0.68036 0.61874 0.50001 -0.38900
O 	O 	0.31964 0.38126 0.49999 -0.38300
O 	O 	0.50001 0.61879 0.33720 -0.39200
O 	O 	0.49999 0.38121 0.66280 -0.38700
O 	O 	0.49999 0.61879 0.66280 -0.38300
O 	O 	0.50001 0.38121 0.33720 -0.38700
