data_crystal

_cell_length_a 11.02913
_cell_length_b 10.93146
_cell_length_c 18.83098
_cell_angle_alpha 90.69750
_cell_angle_beta  90.43766
_cell_angle_gamma 60.52930

_symmetry_space_group_name_	'P 1'
_symmetry_space_group_name_H-M	'P 1'

loop_
_symmetry_equiv_pos_as_xyz
  x,y,z

loop_
_atom_site_label
_atom_site_type_symbol
_atom_site_fract_x
_atom_site_fract_y
_atom_site_fract_z
_atom_site_charge
C 	C 	0.24330 0.64604 0.61110 0.41500
C 	C 	0.73892 0.51631 0.79679 -0.04000
C 	C 	0.69708 0.66991 0.81437 -0.09200
C 	C 	0.67036 0.64402 0.67814 -0.07900
C 	C 	0.77407 0.69753 0.69021 -0.04900
C 	C 	0.72316 0.50187 0.71700 -0.04800
C 	C 	0.68686 0.13502 0.81998 -0.10500
C 	C 	0.76671 0.18261 0.78609 0.04100
C 	C 	0.75819 0.19742 0.71246 0.05100
C 	C 	0.58900 0.12002 0.70571 0.02200
C 	C 	0.59500 0.10735 0.77846 0.01500
C 	C 	0.65296 0.62062 0.60190 0.37800
C 	C 	0.92044 0.11438 0.78612 -0.08500
C 	C 	0.91115 0.12393 0.70615 -0.08900
C 	C 	0.67015 0.16679 0.67177 -0.13300
C 	C 	0.17128 0.67491 0.83410 -0.14200
C 	C 	0.14210 0.58859 0.79093 0.11800
C 	C 	0.16520 0.58084 0.71918 0.04100
C 	C 	0.20177 0.78290 0.72761 -0.04000
C 	C 	0.20308 0.76973 0.80157 0.04300
C 	C 	0.18674 0.43598 0.79537 -0.14100
C 	C 	0.22426 0.42480 0.71670 -0.05700
C 	C 	0.62847 0.22736 0.60190 0.41800
C 	C 	0.19594 0.67443 0.68468 -0.08700
C 	C 	0.65332 0.65812 0.16518 -0.14400
C 	C 	0.74847 0.53717 0.20203 0.04300
C 	C 	0.74336 0.53092 0.27454 0.05000
C 	C 	0.53157 0.75195 0.27734 -0.00700
C 	C 	0.53603 0.75913 0.20267 -0.00800
C 	C 	0.90498 0.45794 0.20342 -0.09000
C 	C 	0.89754 0.45368 0.28330 -0.09300
C 	C 	0.64284 0.64192 0.31439 -0.14600
C 	C 	0.63612 0.18900 0.16887 -0.13300
C 	C 	0.22064 0.64891 0.40200 0.44700
C 	C 	0.51859 0.20774 0.20611 0.05300
C 	C 	0.51437 0.21990 0.27879 0.05600
C 	C 	0.73040 0.22361 0.27860 0.00200
C 	C 	0.73329 0.21485 0.20453 0.00000
C 	C 	0.44887 0.11986 0.20773 -0.08900
C 	C 	0.44413 0.13443 0.28768 -0.08400
C 	C 	0.62632 0.21348 0.31656 -0.14000
C 	C 	0.11853 0.69036 0.18856 -0.13700
C 	C 	0.07196 0.81032 0.23146 0.08900
C 	C 	0.08469 0.80173 0.30374 0.08200
C 	C 	0.63860 0.61944 0.39046 0.40000
C 	C 	0.17333 0.55113 0.29427 0.02900
C 	C 	0.16052 0.56091 0.22056 0.02700
C 	C 	0.10455 0.92743 0.22774 -0.19000
C 	C 	0.11454 0.92167 0.30773 -0.18300
C 	C 	0.14817 0.67015 0.33555 -0.14100
C 	C 	0.70406 0.09418 0.89427 0.40800
C 	C 	0.72081 0.68536 0.88990 0.40300
C 	C 	0.11736 0.70647 0.90588 0.42300
C 	C 	0.67341 0.11088 0.10254 0.40700
C 	C 	0.69592 0.68845 0.09698 0.41100
C 	C 	0.61117 0.23891 0.39229 0.42400
C 	C 	0.08936 0.71201 0.11386 0.42600
C 	C 	0.54387 0.76405 0.79239 -0.03700
C 	C 	0.52971 0.74927 0.71198 -0.04400
C 	C 	0.78897 0.71332 0.77072 -0.04000
Cr	Cr	0.39296 0.39792 0.50224 1.53700
Cr	Cr	0.39834 0.70848 0.50125 1.52900
Cr	Cr	0.70867 0.39357 0.49646 1.52700
Cr	Cr	0.93765 0.93854 0.00761 1.42400
Cr	Cr	0.62533 0.93737 0.99452 1.51000
Cr	Cr	0.93794 0.62523 0.00119 1.46900
H 	H 	0.50773 0.87582 0.80561 0.02600
H 	H 	0.82615 0.42307 0.69564 0.03000
H 	H 	0.89785 0.64470 0.78587 -0.01000
H 	H 	0.87716 0.62238 0.66696 -0.00400
H 	H 	0.51598 0.09904 0.67653 0.05400
H 	H 	0.52870 0.07178 0.80169 0.07300
H 	H 	0.96873 0.00575 0.80620 0.05500
H 	H 	0.95865 0.18173 0.81108 0.02800
H 	H 	0.95148 0.18999 0.68341 0.03000
H 	H 	0.94552 0.02126 0.67907 0.06200
H 	H 	0.47648 0.73265 0.82166 0.04500
H 	H 	0.21787 0.84253 0.83505 0.04600
H 	H 	0.09690 0.41866 0.80479 0.12200
H 	H 	0.33785 0.36877 0.70593 0.06200
H 	H 	0.16154 0.39308 0.68258 0.07400
H 	H 	0.44511 0.83473 0.30596 0.00900
H 	H 	0.45406 0.84822 0.17535 0.00300
H 	H 	0.95104 0.52222 0.18581 0.00500
H 	H 	0.94887 0.35257 0.17778 0.00700
H 	H 	0.93871 0.34582 0.30401 0.01200
H 	H 	0.45849 0.70659 0.70290 0.05100
H 	H 	0.93624 0.51787 0.31129 0.00300
H 	H 	0.81154 0.23328 0.30603 0.00900
H 	H 	0.81817 0.21452 0.17605 0.00400
H 	H 	0.51973 0.01094 0.18969 0.09500
H 	H 	0.34421 0.17269 0.18239 0.07200
H 	H 	0.33667 0.19689 0.30879 0.06900
H 	H 	0.51085 0.03377 0.31543 0.08000
H 	H 	0.21723 0.44811 0.31766 0.04700
H 	H 	0.18882 0.46738 0.18884 0.04700
H 	H 	0.01646 0.02576 0.20780 0.18100
H 	H 	0.48738 0.85355 0.68622 0.02600
H 	H 	0.20586 0.89526 0.20136 0.06300
H 	H 	0.22038 0.89332 0.32644 0.06500
H 	H 	0.02929 0.01566 0.33430 0.17200
H 	H 	0.76303 0.82288 0.78366 -0.00400
H 	H 	0.73634 0.80061 0.66385 -0.00200
H 	H 	0.84895 0.44406 0.81224 0.02200
H 	H 	0.67217 0.48446 0.82652 0.04400
H 	H 	0.64713 0.46446 0.70778 0.04600
O 	O 	0.50738 0.25570 0.58144 -0.47600
O 	O 	0.52448 0.69581 0.42404 -0.53200
O 	O 	0.73639 0.50429 0.41479 -0.49900
O 	O 	0.69130 0.27729 0.42217 -0.54000
O 	O 	0.49999 0.49999 0.49998 -0.74300
O 	O 	0.08940 0.82569 0.93057 -0.43400
O 	O 	0.81846 0.05444 0.92985 -0.48100
O 	O 	0.60606 0.07715 0.91551 -0.42900
O 	O 	0.64655 0.80668 0.91757 -0.54400
O 	O 	0.83717 0.59341 0.91525 -0.51000
O 	O 	0.06520 0.63553 0.93157 -0.43500
O 	O 	0.28032 0.52735 0.57893 -0.50500
O 	O 	0.06826 0.82889 0.09184 -0.46300
O 	O 	0.79887 0.05741 0.07934 -0.50900
O 	O 	0.58493 0.08035 0.07678 -0.45100
O 	O 	0.62696 0.80965 0.06706 -0.56600
O 	O 	0.81604 0.59661 0.07651 -0.52200
O 	O 	0.04561 0.63850 0.08106 -0.45600
O 	O 	0.83364 0.83371 0.00110 -0.84400
O 	O 	0.26051 0.73959 0.58459 -0.46200
O 	O 	0.53230 0.69508 0.57382 -0.52900
O 	O 	0.74484 0.50350 0.57637 -0.50200
O 	O 	0.69912 0.27656 0.57196 -0.52900
O 	O 	0.49894 0.25650 0.41986 -0.47500
O 	O 	0.27250 0.52808 0.42915 -0.52400
O 	O 	0.25206 0.74038 0.42301 -0.49500
C 	C 	0.21128 0.91005 0.70309 0.29700
O 	O 	0.17964 0.95680 0.64315 -0.27000
O 	O 	0.24582 0.98547 0.75223 -0.41000
H 	H 	0.24490 0.07072 0.73094 0.25900
C 	C 	0.30257 0.35925 0.84772 0.31200
O 	O 	0.40366 0.37709 0.84912 -0.24500
O 	O 	0.28691 0.27634 0.89873 -0.29500
H 	H 	0.35927 0.24602 0.93776 0.16300
