data_crystal

_cell_length_a 19.58880
_cell_length_b 11.29683
_cell_length_c 18.68742
_cell_angle_alpha 90.17669
_cell_angle_beta  89.40390
_cell_angle_gamma 90.05189

_symmetry_space_group_name_	'P 1'
_symmetry_space_group_name_H-M	'P 1'

loop_
_symmetry_equiv_pos_as_xyz
  x,y,z

loop_
_atom_site_label
_atom_site_type_symbol
_atom_site_fract_x
_atom_site_fract_y
_atom_site_fract_z
_atom_site_charge
C 	C 	0.27286 0.04199 0.85487 0.38700
C 	C 	0.69136 0.51494 0.96001 -0.05200
C 	C 	0.22447 0.53966 0.35526 0.37500
C 	C 	0.47048 0.82305 0.64648 0.35100
C 	C 	0.53077 0.82352 0.35440 0.34700
C 	C 	0.97048 0.32305 0.64648 0.34900
C 	C 	0.03077 0.32352 0.35440 0.35000
C 	C 	0.26087 0.64017 0.64369 0.33800
C 	C 	0.73731 0.64506 0.35817 0.33900
C 	C 	0.76087 0.14017 0.64369 0.33400
C 	C 	0.23731 0.14506 0.35817 0.33600
C 	C 	0.47207 0.91151 0.03950 0.00000
C 	C 	0.81609 0.03963 0.04502 -0.01700
C 	C 	0.51111 0.92452 0.96732 -0.05500
C 	C 	0.97207 0.41151 0.03950 -0.01800
C 	C 	0.01111 0.42452 0.96732 -0.00500
C 	C 	0.42974 0.80857 0.00780 -0.03100
C 	C 	0.56473 0.83426 0.99231 -0.01000
C 	C 	0.92974 0.30857 0.00780 -0.01900
C 	C 	0.06473 0.33426 0.99231 -0.02700
C 	C 	0.46933 0.82231 0.93662 -0.05100
C 	C 	0.52556 0.82201 0.06388 -0.07400
C 	C 	0.96933 0.32231 0.93662 -0.06700
C 	C 	0.19136 0.01494 0.96001 -0.01700
C 	C 	0.02556 0.32201 0.06388 -0.05800
C 	C 	0.36690 0.64854 0.32575 -0.08100
C 	C 	0.61974 0.62762 0.67279 -0.08600
C 	C 	0.86690 0.14854 0.32575 -0.08200
C 	C 	0.11974 0.12762 0.67279 -0.08900
C 	C 	0.32342 0.55912 0.96349 -0.05100
C 	C 	0.68729 0.52268 0.04245 -0.05100
C 	C 	0.82342 0.05912 0.96349 -0.02300
C 	C 	0.18729 0.02268 0.04245 -0.02200
C 	C 	0.18701 0.51293 0.02675 -0.05500
C 	C 	0.82292 0.52990 0.97357 -0.05200
C 	C 	0.68700 0.01293 0.02675 -0.01900
C 	C 	0.72835 0.04467 0.14663 0.38100
C 	C 	0.32292 0.02990 0.97357 -0.01800
C 	C 	0.23573 0.70756 0.05649 -0.05100
C 	C 	0.75274 0.70349 0.94503 -0.04700
C 	C 	0.73573 0.20756 0.05649 -0.04700
C 	C 	0.25274 0.20350 0.94503 -0.04400
C 	C 	0.24329 0.57557 0.07097 -0.05700
C 	C 	0.75899 0.57122 0.93119 -0.06100
C 	C 	0.74329 0.07557 0.07097 -0.07600
C 	C 	0.25899 0.07122 0.93119 -0.07900
C 	C 	0.25622 0.61083 0.93254 -0.06100
C 	C 	0.77286 0.54199 0.85487 0.34500
C 	C 	0.74530 0.60441 0.06971 -0.06000
C 	C 	0.75623 0.11083 0.93254 -0.07000
C 	C 	0.24530 0.10441 0.06971 -0.07000
C 	C 	0.19989 0.52013 0.94551 -0.05100
C 	C 	0.81384 0.54451 0.05452 -0.05000
C 	C 	0.69990 0.02013 0.94551 -0.02200
C 	C 	0.31384 0.04451 0.05452 -0.02100
C 	C 	0.23609 0.72467 0.97477 -0.05400
C 	C 	0.74055 0.72044 0.02620 -0.05900
C 	C 	0.73609 0.22468 0.97477 -0.05500
C 	C 	0.22835 0.54467 0.14663 0.34100
C 	C 	0.24055 0.22044 0.02620 -0.05800
C 	C 	0.50947 0.70329 0.46122 -0.05400
C 	C 	0.50069 0.70219 0.54006 -0.05300
C 	C 	0.00947 0.20329 0.46122 -0.05000
C 	C 	0.00069 0.20219 0.54006 -0.05100
C 	C 	0.44321 0.81744 0.86253 0.27500
C 	C 	0.55396 0.81753 0.13723 0.29600
C 	C 	0.94321 0.31744 0.86253 0.28100
C 	C 	0.05396 0.31753 0.13723 0.29100
C 	C 	0.56113 0.91176 0.47187 -0.09300
C 	C 	0.52228 0.73225 0.96162 -0.01700
C 	C 	0.43231 0.88652 0.52900 -0.05600
C 	C 	0.06113 0.41176 0.47187 -0.05300
C 	C 	0.93231 0.38652 0.52900 -0.05800
C 	C 	0.44005 0.88231 0.44647 -0.05500
C 	C 	0.55510 0.89954 0.55392 -0.03900
C 	C 	0.94006 0.38231 0.44647 -0.05300
C 	C 	0.05510 0.39954 0.55392 -0.04900
C 	C 	0.51038 0.83040 0.43099 -0.05200
C 	C 	0.49094 0.82855 0.56978 -0.06300
C 	C 	0.01039 0.33040 0.43099 -0.05800
C 	C 	0.48352 0.71935 0.03308 -0.00400
C 	C 	0.99094 0.32855 0.56978 -0.06200
C 	C 	0.17532 0.64104 0.46165 -0.03500
C 	C 	0.81720 0.66107 0.54284 -0.03500
C 	C 	0.67532 0.14104 0.46165 -0.03200
C 	C 	0.31720 0.16107 0.54284 -0.03400
C 	C 	0.17946 0.64839 0.54166 -0.05900
C 	C 	0.81321 0.66664 0.46289 -0.05900
C 	C 	0.67946 0.14839 0.54166 -0.06500
C 	C 	0.31321 0.16664 0.46289 -0.06300
C 	C 	0.25212 0.45514 0.47326 -0.03700
C 	C 	0.02228 0.23225 0.96162 -0.00300
C 	C 	0.76040 0.46153 0.52580 -0.04700
C 	C 	0.75212 0.95514 0.47326 -0.05600
C 	C 	0.26040 0.96153 0.52580 -0.06800
C 	C 	0.29757 0.65418 0.43917 0.06300
C 	C 	0.69324 0.64088 0.56275 0.05900
C 	C 	0.79757 0.15418 0.43917 0.06600
C 	C 	0.19324 0.14088 0.56275 0.06000
C 	C 	0.23718 0.57117 0.43014 -0.10000
C 	C 	0.76068 0.57684 0.57160 -0.09500
C 	C 	0.73718 0.07117 0.43014 -0.08700
C 	C 	0.98352 0.21935 0.03308 -0.01600
C 	C 	0.26068 0.07684 0.57160 -0.07900
C 	C 	0.25094 0.60572 0.56754 -0.04300
C 	C 	0.74521 0.61115 0.43446 -0.04900
C 	C 	0.75094 0.10572 0.56754 -0.01500
C 	C 	0.24521 0.11115 0.43446 -0.02200
C 	C 	0.25437 0.47407 0.55472 -0.06200
C 	C 	0.75284 0.47929 0.44463 -0.05600
C 	C 	0.75437 0.97407 0.55472 -0.08800
C 	C 	0.25284 0.97929 0.44463 -0.08200
C 	C 	0.26243 0.64281 0.85518 0.34700
C 	C 	0.31609 0.53963 0.04502 -0.05200
C 	C 	0.73864 0.63836 0.14647 0.34900
C 	C 	0.76243 0.14281 0.85518 0.35400
C 	C 	0.23864 0.13836 0.14647 0.35800
C 	C 	0.30807 0.66353 0.52126 -0.10000
C 	C 	0.68026 0.64496 0.48081 -0.08900
C 	C 	0.80807 0.16353 0.52126 -0.10500
C 	C 	0.18026 0.14496 0.48081 -0.09300
C 	C 	0.27441 0.04267 0.64596 0.40100
C 	C 	0.72447 0.03966 0.35526 0.40500
C 	C 	0.77441 0.54267 0.64596 0.37100
Cr	Cr	0.22962 0.83604 0.74911 1.51400
Cr	Cr	0.61398 0.67659 0.25079 1.51200
Cr	Cr	0.88602 0.17659 0.74921 1.51300
Cr	Cr	0.11398 0.17659 0.25079 1.51400
Cr	Cr	0.77038 0.83604 0.25089 1.51300
Cr	Cr	0.72962 0.33604 0.74911 1.51400
Cr	Cr	0.27038 0.33604 0.25089 1.51400
Cr	Cr	0.38763 0.99068 0.75073 1.50300
Cr	Cr	0.61237 0.99068 0.24927 1.50300
Cr	Cr	0.88763 0.49068 0.75073 1.51200
Cr	Cr	0.11237 0.49068 0.24927 1.51200
Cr	Cr	0.38602 0.67659 0.74921 1.51200
H 	H 	0.37513 0.79238 0.01780 0.02600
H 	H 	0.70937 0.73905 0.91393 0.02900
H 	H 	0.22231 0.89793 0.54547 0.03900
H 	H 	0.30282 0.43986 0.57698 0.03500
H 	H 	0.70771 0.43038 0.42429 0.03300
H 	H 	0.80282 0.93986 0.57698 0.03100
H 	H 	0.20772 0.93038 0.42429 0.03000
H 	H 	0.32891 0.44736 0.05817 0.03700
H 	H 	0.68374 0.42492 0.94122 0.03800
H 	H 	0.82891 0.94736 0.05817 0.01100
H 	H 	0.18374 0.92492 0.94122 0.01300
H 	H 	0.35435 0.59423 0.07361 0.03400
H 	H 	0.77727 0.25845 0.08229 0.03100
H 	H 	0.64741 0.56349 0.93722 0.03400
H 	H 	0.85435 0.09423 0.07361 0.03100
H 	H 	0.14741 0.06349 0.93722 0.03100
H 	H 	0.36696 0.61887 0.95211 0.04000
H 	H 	0.63613 0.55771 0.05798 0.03800
H 	H 	0.86696 0.11887 0.95211 0.03700
H 	H 	0.13613 0.05770 0.05798 0.03700
H 	H 	0.33569 0.47334 0.93693 0.03400
H 	H 	0.69196 0.43434 0.06674 0.03300
H 	H 	0.83569 0.97334 0.93693 0.00800
H 	H 	0.20938 0.23905 0.91393 0.03000
H 	H 	0.19196 0.93434 0.06674 0.00800
H 	H 	0.68288 0.92333 0.04582 0.01000
H 	H 	0.33598 0.93953 0.95846 0.01000
H 	H 	0.18288 0.42333 0.04582 0.03500
H 	H 	0.83597 0.43953 0.95846 0.03400
H 	H 	0.71576 0.93367 0.92340 0.01000
H 	H 	0.31615 0.95730 0.08160 0.01000
H 	H 	0.21576 0.43367 0.92340 0.03300
H 	H 	0.81615 0.45730 0.08160 0.03300
H 	H 	0.38134 0.53599 0.41484 0.06900
H 	H 	0.27016 0.79709 0.95960 0.03400
H 	H 	0.37677 0.56925 0.29196 0.02500
H 	H 	0.41123 0.70830 0.32030 0.04600
H 	H 	0.32146 0.69550 0.30493 0.04100
H 	H 	0.63120 0.49182 0.59419 0.07100
H 	H 	0.57470 0.57849 0.69368 0.02800
H 	H 	0.60605 0.72247 0.66911 0.04400
H 	H 	0.66158 0.61993 0.71179 0.04000
H 	H 	0.88135 0.03599 0.41484 0.07800
H 	H 	0.87676 0.06925 0.29196 0.03300
H 	H 	0.91123 0.20830 0.32030 0.04700
H 	H 	0.68764 0.74764 0.03513 0.03600
H 	H 	0.82146 0.19550 0.30493 0.04500
H 	H 	0.13120 0.99182 0.59419 0.04800
H 	H 	0.07470 0.07849 0.69368 0.03700
H 	H 	0.10605 0.22247 0.66911 0.04700
H 	H 	0.16158 0.11993 0.71179 0.04800
H 	H 	0.77016 0.29709 0.95960 0.03500
H 	H 	0.18764 0.24764 0.03513 0.03600
H 	H 	0.18282 0.74591 0.95978 0.03900
H 	H 	0.77616 0.78738 0.04652 0.04200
H 	H 	0.68282 0.24591 0.95978 0.04100
H 	H 	0.61701 0.83815 0.97204 0.01700
H 	H 	0.27615 0.28738 0.04652 0.04300
H 	H 	0.63624 0.05365 0.03830 0.04300
H 	H 	0.36856 0.08280 0.95742 0.04200
H 	H 	0.13624 0.55365 0.03830 0.04300
H 	H 	0.86856 0.58280 0.95742 0.04100
H 	H 	0.15204 0.54623 0.91812 0.03700
H 	H 	0.85609 0.60010 0.07549 0.03800
H 	H 	0.65204 0.04623 0.91812 0.03900
H 	H 	0.35609 0.10010 0.07549 0.04100
H 	H 	0.55425 0.65315 0.44621 0.04300
H 	H 	0.87513 0.29238 0.01780 0.02400
H 	H 	0.46013 0.63898 0.55433 0.04100
H 	H 	0.05425 0.15315 0.44621 0.04400
H 	H 	0.96013 0.13898 0.55433 0.04200
H 	H 	0.46881 0.65171 0.43701 0.04500
H 	H 	0.54533 0.66527 0.56281 0.05000
H 	H 	0.96881 0.15171 0.43701 0.04400
H 	H 	0.04533 0.16527 0.56281 0.05200
H 	H 	0.61351 0.90083 0.45265 0.03900
H 	H 	0.39113 0.83163 0.54559 0.03700
H 	H 	0.11351 0.40083 0.45265 0.03600
H 	H 	0.11701 0.33815 0.97204 0.02600
H 	H 	0.89113 0.33163 0.54559 0.03900
H 	H 	0.60077 0.85536 0.57546 0.02700
H 	H 	0.39919 0.82830 0.42275 0.03700
H 	H 	0.10078 0.35536 0.57546 0.03200
H 	H 	0.89919 0.32830 0.42275 0.03800
H 	H 	0.45348 0.98580 0.07315 0.01500
H 	H 	0.52227 0.00982 0.94027 0.05800
H 	H 	0.95348 0.48580 0.07315 0.02800
H 	H 	0.02227 0.50982 0.94027 0.02500
H 	H 	0.43576 0.97233 0.42335 0.02200
H 	H 	0.18657 0.74031 0.07923 0.03500
H 	H 	0.54973 0.98767 0.57968 0.01800
H 	H 	0.93576 0.47233 0.42335 0.03000
H 	H 	0.04973 0.48767 0.57968 0.03100
H 	H 	0.42563 0.97855 0.54705 0.03100
H 	H 	0.54475 0.00290 0.45947 0.07000
H 	H 	0.92563 0.47855 0.54705 0.04100
H 	H 	0.04475 0.50290 0.45947 0.03700
H 	H 	0.12645 0.60552 0.44649 0.03500
H 	H 	0.86964 0.63493 0.55663 0.03200
H 	H 	0.62645 0.10552 0.44649 0.04100
H 	H 	0.79977 0.75137 0.92780 0.03400
H 	H 	0.36964 0.13493 0.55663 0.04200
H 	H 	0.17359 0.73203 0.43911 0.02800
H 	H 	0.81127 0.74991 0.56668 0.02800
H 	H 	0.67359 0.23203 0.43911 0.03000
H 	H 	0.31127 0.24991 0.56668 0.03000
H 	H 	0.16636 0.74013 0.55700 0.03800
H 	H 	0.82251 0.75680 0.44596 0.03900
H 	H 	0.66636 0.24013 0.55700 0.04200
H 	H 	0.32251 0.25680 0.44595 0.04300
H 	H 	0.13938 0.59374 0.56683 0.03700
H 	H 	0.68657 0.24032 0.07923 0.03700
H 	H 	0.85749 0.61838 0.43936 0.03600
H 	H 	0.63938 0.09374 0.56683 0.05000
H 	H 	0.35749 0.11838 0.43936 0.04900
H 	H 	0.71898 0.88180 0.45881 0.03200
H 	H 	0.31024 0.93002 0.53291 0.03500
H 	H 	0.21898 0.38180 0.45881 0.03100
H 	H 	0.81024 0.43002 0.53291 0.03500
H 	H 	0.71122 0.92911 0.58203 0.03300
H 	H 	0.29811 0.94580 0.41454 0.03200
H 	H 	0.21122 0.42911 0.58203 0.03400
H 	H 	0.29977 0.25137 0.92780 0.03500
H 	H 	0.79811 0.44580 0.41454 0.03300
H 	H 	0.28464 0.74352 0.41880 0.01100
H 	H 	0.69761 0.73296 0.58273 0.01200
H 	H 	0.78464 0.24352 0.41880 0.01000
H 	H 	0.19762 0.23296 0.58273 0.01200
H 	H 	0.54269 0.65718 0.92964 0.03300
H 	H 	0.47309 0.63331 0.05951 0.02800
H 	H 	0.04269 0.15718 0.92964 0.03400
H 	H 	0.97309 0.13331 0.05951 0.03400
H 	H 	0.30255 0.75369 0.53564 0.04800
H 	H 	0.27727 0.75845 0.08229 0.03000
H 	H 	0.65838 0.72953 0.46500 0.04400
H 	H 	0.80255 0.25369 0.53564 0.04900
H 	H 	0.15837 0.22953 0.46500 0.04500
H 	H 	0.35759 0.62706 0.53636 0.05400
H 	H 	0.64220 0.57511 0.46993 0.04900
H 	H 	0.85759 0.12706 0.53636 0.05900
H 	H 	0.14220 0.07511 0.46993 0.05800
H 	H 	0.30364 0.42834 0.45780 0.03700
H 	H 	0.72231 0.39793 0.54547 0.03800
H 	H 	0.80364 0.92834 0.45780 0.03200
N 	N 	0.35805 0.61376 0.40017 -0.14500
N 	N 	0.63902 0.58098 0.60269 -0.14400
N 	N 	0.85805 0.11376 0.40017 -0.14400
N 	N 	0.13902 0.08098 0.60269 -0.12600
O 	O 	0.21413 0.70857 0.82989 -0.47100
O 	O 	0.54283 0.71730 0.33162 -0.47500
O 	O 	0.95717 0.21730 0.66838 -0.47300
O 	O 	0.04283 0.21730 0.33162 -0.47300
O 	O 	0.32087 0.62489 0.67313 -0.49900
O 	O 	0.67913 0.62489 0.32687 -0.50100
O 	O 	0.82087 0.12489 0.67313 -0.49200
O 	O 	0.17913 0.12489 0.32687 -0.49300
O 	O 	0.33443 0.83443 0.74968 -0.72600
O 	O 	0.66557 0.83443 0.25032 -0.72600
O 	O 	0.83443 0.33443 0.74968 -0.72300
O 	O 	0.78587 0.70857 0.17011 -0.47400
O 	O 	0.16557 0.33443 0.25032 -0.72200
O 	O 	0.23605 0.95915 0.82527 -0.54000
O 	O 	0.76395 0.95915 0.17473 -0.53500
O 	O 	0.73605 0.45915 0.82527 -0.50900
O 	O 	0.26395 0.45915 0.17473 -0.50500
O 	O 	0.33210 0.07665 0.83231 -0.47100
O 	O 	0.66790 0.07665 0.16769 -0.46700
O 	O 	0.83210 0.57665 0.83231 -0.47700
O 	O 	0.16790 0.57665 0.16769 -0.47300
O 	O 	0.44650 0.91862 0.82624 -0.48100
O 	O 	0.71413 0.20857 0.82989 -0.46900
O 	O 	0.55350 0.91862 0.17376 -0.48700
O 	O 	0.94650 0.41862 0.82624 -0.47400
O 	O 	0.05350 0.41862 0.17376 -0.47800
O 	O 	0.45731 0.71583 0.83128 -0.43500
O 	O 	0.54269 0.71583 0.16872 -0.44100
O 	O 	0.95731 0.21583 0.83128 -0.43400
O 	O 	0.04269 0.21583 0.16872 -0.43600
O 	O 	0.32100 0.62352 0.82413 -0.51500
O 	O 	0.67900 0.62352 0.17587 -0.51700
O 	O 	0.82100 0.12352 0.82413 -0.51000
O 	O 	0.28587 0.20857 0.17011 -0.47000
O 	O 	0.17900 0.12352 0.17587 -0.51300
O 	O 	0.21399 0.71004 0.66700 -0.47000
O 	O 	0.78601 0.71004 0.33300 -0.46900
O 	O 	0.71399 0.21004 0.66700 -0.46500
O 	O 	0.28601 0.21004 0.33300 -0.46200
O 	O 	0.23592 0.96052 0.67426 -0.53800
O 	O 	0.76408 0.96052 0.32574 -0.54300
O 	O 	0.73592 0.46052 0.67426 -0.51000
O 	O 	0.26408 0.46052 0.32574 -0.51300
O 	O 	0.33196 0.07812 0.66941 -0.47100
O 	O 	0.44636 0.91999 0.67523 -0.51900
O 	O 	0.66804 0.07812 0.33059 -0.47400
O 	O 	0.83196 0.57812 0.66941 -0.47900
O 	O 	0.16804 0.57812 0.33059 -0.48100
O 	O 	0.55364 0.91999 0.32477 -0.52000
O 	O 	0.94636 0.41999 0.67523 -0.51300
O 	O 	0.05364 0.41999 0.32477 -0.51200
O 	O 	0.45717 0.71730 0.66838 -0.47500
