data_crystal

_cell_length_a 9.94504
_cell_length_b 10.66322
_cell_length_c 13.24883
_cell_angle_alpha 90.30908
_cell_angle_beta  70.77386
_cell_angle_gamma 87.87104

_symmetry_space_group_name_	'P 1'
_symmetry_space_group_name_H-M	'P 1'

loop_
_symmetry_equiv_pos_as_xyz
  x,y,z

loop_
_atom_site_label
_atom_site_type_symbol
_atom_site_fract_x
_atom_site_fract_y
_atom_site_fract_z
_atom_site_charge
C 	C 	0.49717 0.73965 0.50165 0.33900
C 	C 	0.45414 0.50506 0.97670 -0.04900
C 	C 	0.47718 0.46292 0.87176 0.08000
C 	C 	0.56048 0.47549 0.02249 0.00400
C 	C 	0.70205 0.44353 0.95878 -0.05200
C 	C 	0.72343 0.39475 0.85545 0.13600
C 	C 	0.60358 0.38710 0.82032 -0.01400
C 	C 	0.52363 0.45692 0.13097 0.10800
C 	C 	0.77014 0.47255 0.11797 -0.01600
C 	C 	0.37800 0.50225 0.82028 -0.16300
C 	C 	0.37810 0.94361 0.55654 -0.05900
C 	C 	0.42227 0.49644 0.70344 0.38900
C 	C 	0.49588 0.87149 0.49424 -0.02200
C 	C 	0.61050 0.92736 0.41843 -0.09100
C 	C 	0.61503 0.05715 0.41345 0.22200
C 	C 	0.50514 0.12857 0.48939 -0.23200
C 	C 	0.38423 0.07155 0.55393 0.14400
C 	C 	0.30808 0.09216 0.67058 -0.22800
C 	C 	0.30270 0.94958 0.67619 0.22800
C 	C 	0.89602 0.57673 0.56841 -0.00800
C 	C 	0.95718 0.41044 0.44424 0.12200
C 	C 	0.09963 0.40726 0.44866 0.12900
C 	C 	0.50318 0.26065 0.49653 0.41200
C 	C 	0.03750 0.57656 0.56815 0.04500
C 	C 	0.03312 0.71564 0.58157 -0.01600
C 	C 	0.88029 0.71682 0.57983 0.22800
C 	C 	0.57868 0.49281 0.29669 0.36000
C 	C 	0.81027 0.44655 0.00764 0.07200
C 	C 	0.62583 0.47460 0.18081 -0.11400
C 	C 	0.25381 0.57515 0.87570 0.17000
C 	C 	0.22795 0.61167 0.98277 0.01600
C 	C 	0.32883 0.57831 0.03318 0.11300
H 	H 	0.85152 0.48332 0.15488 0.06000
H 	H 	0.37503 0.13515 0.71240 0.08800
H 	H 	0.20274 0.14178 0.68591 0.09200
H 	H 	0.04111 0.74139 0.66017 0.07600
H 	H 	0.69669 0.87024 0.36396 0.09200
N 	N 	0.85694 0.50086 0.50071 -0.22800
N 	N 	0.14258 0.50082 0.50071 -0.23600
O 	O 	0.38531 0.68321 0.49999 -0.41200
O 	O 	0.61465 0.68324 0.50000 -0.42500
O 	O 	0.32839 0.49994 0.65361 -0.43300
O 	O 	0.55773 0.49998 0.65362 -0.45500
O 	O 	0.38535 0.31676 0.50000 -0.44400
O 	O 	0.61469 0.31679 0.50001 -0.46000
O 	O 	0.44227 0.50002 0.34638 -0.43900
O 	O 	0.67161 0.50006 0.34639 -0.45200
Zn	Zn	0.34687 0.49998 0.49999 1.23400
Zn	Zn	0.65313 0.50002 0.50001 1.23000
O 	O 	0.72701 0.10875 0.33551 -0.29900
H 	H 	0.69948 0.19622 0.32386 0.15800
N 	N 	0.38633 0.89218 0.73688 -0.15300
H 	H 	0.49378 0.90839 0.70793 0.09000
C 	C 	0.32621 0.90609 0.85196 -0.06700
H 	H 	0.39382 0.85193 0.88980 0.05700
H 	H 	0.21737 0.86959 0.88111 0.07300
H 	H 	0.32093 0.00626 0.87651 0.03600
O 	O 	0.16350 0.90635 0.70742 -0.28700
H 	H 	0.11125 0.95018 0.66470 0.16100
O 	O 	0.92488 0.32281 0.38024 -0.27900
H 	H 	0.83755 0.35256 0.36746 0.13600
O 	O 	0.19631 0.31105 0.40124 -0.29400
H 	H 	0.14692 0.24219 0.37966 0.16500
O 	O 	0.12864 0.77765 0.49523 -0.22900
H 	H 	0.13032 0.73669 0.42726 0.14800
O 	O 	0.77952 0.75773 0.67731 -0.29800
H 	H 	0.68511 0.73499 0.67427 0.16500
O 	O 	0.85284 0.33682 0.79827 -0.28700
H 	H 	0.86279 0.33484 0.72151 0.15100
O 	O 	0.86196 0.77637 0.49076 -0.29000
H 	H 	0.86149 0.86790 0.50495 0.17300
N 	N 	0.95804 0.43086 0.94861 -0.13100
H 	H 	0.98822 0.45780 0.87021 0.11700
C 	C 	0.02545 0.31400 0.96560 -0.09800
H 	H 	0.14088 0.31248 0.91861 0.05800
H 	H 	0.97689 0.23328 0.93925 0.07200
H 	H 	0.01435 0.30438 0.05139 0.05400
N 	N 	0.40088 0.38560 0.17847 -0.14200
H 	H 	0.31717 0.42820 0.23782 0.11600
C 	C 	0.42988 0.25367 0.19120 -0.08100
H 	H 	0.33064 0.20193 0.20628 0.05600
H 	H 	0.47035 0.24068 0.25938 0.06400
H 	H 	0.50984 0.21348 0.11703 0.05200
O 	O 	0.16807 0.62125 0.81921 -0.27300
H 	H 	0.08642 0.67276 0.86616 0.16900
O 	O 	0.31274 0.62557 0.13396 -0.27100
H 	H 	0.21052 0.62447 0.17771 0.14700
O 	O 	0.10890 0.68790 0.03328 -0.26100
H 	H 	0.13254 0.74828 0.08131 0.14500
N 	N 	0.60303 0.29173 0.74455 -0.12100
H 	H 	0.68182 0.29880 0.67159 0.08700
C 	C 	0.59942 0.16573 0.78511 -0.09400
H 	H 	0.60107 0.09736 0.72139 0.05100
H 	H 	0.50133 0.15557 0.85484 0.05100
H 	H 	0.69421 0.14349 0.80946 0.06200
