data_crystal

_cell_length_a 6.97701
_cell_length_b 13.79394
_cell_length_c 20.25548
_cell_angle_alpha 103.36030
_cell_angle_beta  89.67934
_cell_angle_gamma 89.87276

_symmetry_space_group_name_	'P 1'
_symmetry_space_group_name_H-M	'P 1'

loop_
_symmetry_equiv_pos_as_xyz
  x,y,z

loop_
_atom_site_label
_atom_site_type_symbol
_atom_site_fract_x
_atom_site_fract_y
_atom_site_fract_z
_atom_site_charge
O 	O 	0.50677 0.59970 0.44955 -0.48000
O 	O 	0.17998 0.59574 0.58796 -0.49600
O 	O 	0.00458 0.40030 0.55045 -0.46700
C 	C 	0.34745 0.61655 0.61547 0.37800
O 	O 	0.17738 0.61170 0.45238 -0.48700
O 	O 	0.00197 0.41637 0.41390 -0.48400
C 	C 	0.34561 0.63574 0.43500 0.38800
O 	O 	0.50939 0.58363 0.58610 -0.48800
O 	O 	0.33753 0.43589 0.48753 -0.63700
V 	V 	0.06466 0.51189 0.50231 1.80200
O 	O 	0.67195 0.40426 0.41204 -0.49500
C 	C 	0.84172 0.38600 0.38395 0.37800
O 	O 	0.67454 0.38830 0.54762 -0.47600
C 	C 	0.84333 0.36324 0.56509 0.36700
V 	V 	0.56403 0.48811 0.49769 1.80100
O 	O 	0.84103 0.56411 0.51247 -0.64400
C 	C 	0.89346 0.11411 0.60782 -0.03700
H 	H 	0.89024 0.16608 0.51596 0.03900
H 	H 	0.91651 0.03839 0.57945 0.04900
C 	C 	0.85314 0.28634 0.60413 -0.08700
C 	C 	0.83703 0.31265 0.93074 0.03500
C 	C 	0.82217 0.38797 0.89589 -0.05700
C 	C 	0.82856 0.36577 0.82521 -0.01100
C 	C 	0.85090 0.26631 0.78702 -0.03200
C 	C 	0.86776 0.18957 0.82326 0.09200
C 	C 	0.85751 0.24077 0.71436 0.01700
C 	C 	0.88157 0.13898 0.67939 -0.02300
C 	C 	0.89714 0.06435 0.71658 0.10000
C 	C 	0.89135 0.09032 0.78721 -0.10900
C 	C 	0.84217 0.31320 0.67500 -0.00400
C 	C 	0.87947 0.18708 0.57082 0.01600
C 	C 	0.85968 0.21366 0.89532 -0.12400
H 	H 	0.82314 0.39136 0.69753 0.03600
H 	H 	0.83029 0.33158 0.98570 0.02800
H 	H 	0.81558 0.42851 0.80232 0.03300
H 	H 	0.80478 0.46448 0.92392 0.04600
H 	H 	0.90476 0.03105 0.81381 0.07800
C 	C 	0.69184 0.21081 0.21985 0.06600
C 	C 	0.85738 0.19987 0.17903 -0.09500
C 	C 	0.01233 0.26229 0.20400 0.00100
H 	H 	0.12834 0.26868 0.16998 0.03900
C 	C 	0.01177 0.32146 0.27111 0.00400
H 	H 	0.12910 0.37190 0.28773 0.03700
C 	C 	0.85341 0.32119 0.31454 -0.10700
C 	C 	0.69231 0.26886 0.28671 0.05300
C 	C 	0.50799 0.31831 0.28011 -0.08300
C 	C 	0.50975 0.26179 0.20767 -0.09700
H 	H 	0.51915 0.40036 0.28607 0.05500
H 	H 	0.39683 0.29350 0.31202 0.06400
H 	H 	0.52624 0.30968 0.17070 0.05700
H 	H 	0.38775 0.21200 0.19952 0.07200
C 	C 	0.50529 0.74979 0.70462 0.04500
C 	C 	0.35060 0.68617 0.68335 -0.11000
C 	C 	0.19290 0.69328 0.72810 -0.00200
H 	H 	0.07115 0.64488 0.71405 0.03800
C 	C 	0.19612 0.75795 0.79314 -0.00300
H 	H 	0.07669 0.75796 0.82731 0.04300
C 	C 	0.35792 0.81675 0.81564 -0.10900
C 	C 	0.50928 0.81308 0.76929 0.04000
C 	C 	0.71576 0.79163 0.77782 -0.08500
C 	C 	0.71145 0.72354 0.70735 -0.08500
H 	H 	0.73868 0.75101 0.81859 0.05900
H 	H 	0.80683 0.85835 0.78106 0.05300
H 	H 	0.73280 0.64357 0.70722 0.05800
H 	H 	0.79863 0.75123 0.66952 0.05900
C 	C 	0.37112 0.88342 0.39411 -0.07900
H 	H 	0.37216 0.83155 0.48571 0.02300
H 	H 	0.40814 0.00714 0.31618 0.06900
H 	H 	0.38460 0.96064 0.42123 0.04800
C 	C 	0.35263 0.71118 0.39660 -0.11500
C 	C 	0.32615 0.68737 0.07079 0.02400
C 	C 	0.30175 0.61242 0.10546 -0.04800
C 	C 	0.30584 0.63396 0.17603 -0.02200
C 	C 	0.33687 0.73218 0.21442 -0.00900
C 	C 	0.36179 0.80973 0.17892 0.07500
C 	C 	0.34525 0.75588 0.28712 -0.01500
C 	C 	0.36437 0.85674 0.32308 0.04500
C 	C 	0.38589 0.93065 0.28829 -0.04900
C 	C 	0.39345 0.90758 0.21821 -0.06300
C 	C 	0.34032 0.68325 0.32588 0.01800
C 	C 	0.36531 0.81062 0.43080 0.04100
C 	C 	0.35560 0.78592 0.10592 -0.10500
H 	H 	0.33121 0.60464 0.30304 0.02800
H 	H 	0.31958 0.66846 0.01585 0.03100
H 	H 	0.28165 0.57196 0.19900 0.03500
H 	H 	0.27742 0.53666 0.07730 0.04300
O 	O 	0.20345 0.91632 0.91391 -0.49700
O 	O 	0.53552 0.88830 0.04762 -0.47200
O 	O 	0.71086 0.08365 0.08610 -0.46700
C 	C 	0.36645 0.86116 0.06415 0.37600
O 	O 	0.53286 0.90425 0.91204 -0.49800
O 	O 	0.70819 0.09971 0.94955 -0.46300
C 	C 	0.36507 0.88255 0.88484 0.37700
O 	O 	0.20612 0.90026 0.05046 -0.46200
O 	O 	0.37528 0.06408 0.01247 -0.63900
V 	V 	0.64818 0.98811 0.99769 1.79400
O 	O 	0.03822 0.11174 0.95237 -0.47200
C 	C 	0.86943 0.13680 0.93487 0.37600
O 	O 	0.04088 0.09579 0.08794 -0.47900
C 	C 	0.87023 0.12367 0.11286 0.38000
V 	V 	0.14880 0.01195 0.00230 1.80600
O 	O 	0.87182 0.93592 0.98753 -0.64900
N 	N 	0.91587 0.96155 0.68422 -0.15900
H 	H 	0.82751 0.93665 0.64324 0.07700
C 	C 	0.11153 0.92667 0.67307 -0.09000
H 	H 	0.11238 0.84556 0.64973 0.05600
H 	H 	0.18910 0.93965 0.72206 0.05300
H 	H 	0.18674 0.96574 0.63829 0.04600
C 	C 	0.45681 0.98744 0.18926 0.25300
O 	O 	0.62799 0.00368 0.18686 -0.20300
O 	O 	0.32150 0.04145 0.16292 -0.28500
H 	H 	0.38180 0.07655 0.12980 0.15400
