data_crystal

_cell_length_a 7.74902
_cell_length_b 8.57919
_cell_length_c 22.99218
_cell_angle_alpha 90.87294
_cell_angle_beta  85.87160
_cell_angle_gamma 93.14513

_symmetry_space_group_name_	'P 1'
_symmetry_space_group_name_H-M	'P 1'

loop_
_symmetry_equiv_pos_as_xyz
  x,y,z

loop_
_atom_site_label
_atom_site_type_symbol
_atom_site_fract_x
_atom_site_fract_y
_atom_site_fract_z
_atom_site_charge
C 	C 	0.54469 0.79451 0.49862 0.35000
C 	C 	0.40510 0.43479 0.29101 0.01400
C 	C 	0.62531 0.71860 0.74526 -0.00700
C 	C 	0.40769 0.46669 0.23139 -0.01300
C 	C 	0.52246 0.63323 0.78822 0.10400
C 	C 	0.50201 0.60238 0.20988 0.10500
C 	C 	0.56241 0.95480 0.48831 0.06800
C 	C 	0.43793 0.04520 0.51201 0.02400
C 	C 	0.50264 0.50273 0.61086 0.37200
C 	C 	0.49819 0.50151 0.38915 0.37200
C 	C 	0.66435 0.59781 0.11709 0.18200
C 	C 	0.45536 0.20548 0.50152 0.36500
C 	C 	0.39884 0.72526 0.88079 0.18000
C 	C 	0.38257 0.70025 0.12435 0.18000
C 	C 	0.67890 0.61912 0.87422 0.17900
C 	C 	0.38895 0.71929 0.06389 -0.05800
C 	C 	0.68489 0.62650 0.93472 -0.05700
C 	C 	0.53632 0.67290 0.02983 0.02800
C 	C 	0.54051 0.67927 0.96869 0.02900
C 	C 	0.67716 0.61500 0.05667 -0.06100
C 	C 	0.39750 0.73243 0.94164 -0.05700
C 	C 	0.25009 0.77818 0.03664 -0.01600
C 	C 	0.41279 0.50646 0.77241 -0.08400
C 	C 	0.82778 0.57570 0.96199 -0.01600
C 	C 	0.25441 0.78483 0.97600 -0.01400
C 	C 	0.82406 0.57022 0.02252 -0.01500
C 	C 	0.73509 0.86367 0.75968 -0.07300
C 	C 	0.65884 0.01047 0.73683 -0.03600
C 	C 	0.76592 0.15786 0.75247 -0.15800
C 	C 	0.31766 0.35082 0.19178 -0.07600
C 	C 	0.12027 0.34891 0.20355 -0.03200
C 	C 	0.02964 0.23700 0.16182 -0.14900
C 	C 	0.59340 0.70078 0.24725 -0.07700
C 	C 	0.40607 0.46199 0.71429 0.04000
C 	C 	0.59358 0.66532 0.30580 0.04200
C 	C 	0.51404 0.54065 0.67198 -0.10300
C 	C 	0.49929 0.53284 0.32760 -0.09900
C 	C 	0.62300 0.66809 0.68725 0.01400
Cl	Cl	0.72413 0.01279 0.43268 -0.28800
Cl	Cl	0.27693 0.98720 0.56787 -0.26300
H 	H 	0.13605 0.81554 0.06194 0.05200
H 	H 	0.33449 0.33143 0.30860 0.04400
H 	H 	0.01395 0.38179 0.45662 0.10000
H 	H 	0.98604 0.61819 0.54339 0.09200
H 	H 	0.76648 0.17171 0.80058 0.07100
H 	H 	0.90129 0.15210 0.73339 0.07400
H 	H 	0.70881 0.26158 0.73480 0.07600
H 	H 	0.65541 0.00301 0.68861 0.05100
H 	H 	0.52397 0.01970 0.75615 0.04800
H 	H 	0.74451 0.87795 0.80740 0.06400
H 	H 	0.86902 0.85233 0.73981 0.06400
H 	H 	0.94102 0.53652 0.93671 0.05100
H 	H 	0.05854 0.27535 0.11604 0.06800
H 	H 	0.07297 0.11672 0.16637 0.06900
H 	H 	0.88733 0.23548 0.17213 0.07200
H 	H 	0.08292 0.31158 0.24900 0.05000
H 	H 	0.07534 0.46821 0.19816 0.06700
H 	H 	0.35161 0.37737 0.14513 0.05600
H 	H 	0.36335 0.23261 0.19923 0.05300
H 	H 	0.14352 0.82707 0.95616 0.05200
H 	H 	0.93448 0.52689 0.04233 0.04500
H 	H 	0.33391 0.44147 0.80553 0.06800
H 	H 	0.66707 0.80337 0.23045 0.07200
H 	H 	0.31941 0.36514 0.70242 0.03800
H 	H 	0.66583 0.74194 0.33430 0.05600
H 	H 	0.70208 0.73133 0.65360 0.04900
N 	N 	0.51683 0.63586 0.14912 -0.17300
N 	N 	0.53619 0.66564 0.84880 -0.17200
N 	N 	0.95033 0.45795 0.48456 -0.22600
N 	N 	0.04967 0.54205 0.51544 -0.21700
O 	O 	0.38925 0.73857 0.50379 -0.40800
O 	O 	0.26272 0.77361 0.85374 -0.18800
O 	O 	0.24292 0.74299 0.15807 -0.19100
O 	O 	0.81220 0.56183 0.84097 -0.19600
O 	O 	0.61075 0.26143 0.49621 -0.41500
O 	O 	0.67839 0.71162 0.49389 -0.41300
O 	O 	0.32161 0.28838 0.50611 -0.41700
O 	O 	0.35540 0.51352 0.58879 -0.43400
O 	O 	0.64460 0.48648 0.41121 -0.43500
O 	O 	0.64455 0.48657 0.57890 -0.44300
O 	O 	0.35545 0.51343 0.42110 -0.43800
O 	O 	0.79640 0.54033 0.14368 -0.20200
Zn	Zn	0.30693 0.51800 0.50661 1.23500
Zn	Zn	0.69307 0.48200 0.49339 1.23500
