data_crystal

_cell_length_a 14.86718
_cell_length_b 10.73990
_cell_length_c 9.90559
_cell_angle_alpha 91.04853
_cell_angle_beta  89.70204
_cell_angle_gamma 91.29166

_symmetry_space_group_name_	'P 1'
_symmetry_space_group_name_H-M	'P 1'

loop_
_symmetry_equiv_pos_as_xyz
  x,y,z

loop_
_atom_site_label
_atom_site_type_symbol
_atom_site_fract_x
_atom_site_fract_y
_atom_site_fract_z
_atom_site_charge
C 	C 	0.49983 0.26032 0.49855 0.40600
C 	C 	0.90824 0.61603 0.54987 -0.09000
C 	C 	0.95049 0.27294 0.53881 0.11300
C 	C 	0.04448 0.27141 0.53012 -0.00100
C 	C 	0.09278 0.38582 0.52432 -0.03100
C 	C 	0.04757 0.50043 0.53781 0.02000
C 	C 	0.09685 0.61470 0.54715 -0.09500
C 	C 	0.05270 0.72483 0.58465 0.10800
C 	C 	0.95827 0.72674 0.58590 0.02800
C 	C 	0.18585 0.38875 0.50986 0.04400
C 	C 	0.23211 0.50161 0.50450 -0.17500
C 	C 	0.32731 0.49977 0.50060 0.40300
C 	C 	0.18973 0.61499 0.52129 0.19200
C 	C 	0.54468 0.06898 0.60221 0.08300
C 	C 	0.50684 0.12880 0.49348 -0.19400
C 	C 	0.48021 0.05983 0.37745 0.18100
C 	C 	0.47788 0.93120 0.38385 -0.07900
C 	C 	0.50501 0.87203 0.50124 -0.05200
C 	C 	0.54438 0.94173 0.60707 -0.03800
C 	C 	0.53133 0.94536 0.76055 0.15700
C 	C 	0.53248 0.08813 0.75104 -0.07900
C 	C 	0.44607 0.41834 0.06929 0.03200
C 	C 	0.50056 0.73983 0.50132 0.34900
C 	C 	0.56449 0.56457 0.07286 0.15300
C 	C 	0.56224 0.56709 0.92837 -0.04100
C 	C 	0.44665 0.41790 0.92809 0.01900
C 	C 	0.34687 0.39228 0.92340 0.03000
C 	C 	0.34693 0.39017 0.07892 0.02600
C 	C 	0.67295 0.50187 0.49979 0.41500
C 	C 	0.81467 0.61488 0.52821 0.19800
C 	C 	0.76908 0.50174 0.50070 -0.22200
C 	C 	0.81262 0.38761 0.49289 0.15500
C 	C 	0.90500 0.38614 0.52225 -0.10600
C 	C 	0.95347 0.50100 0.53746 0.04400
H 	H 	0.44958 0.87835 0.29936 0.07100
H 	H 	0.46725 0.13158 0.77755 0.05600
H 	H 	0.61064 0.62293 0.87402 0.04100
H 	H 	0.33250 0.29800 0.87945 0.02900
H 	H 	0.33428 0.29611 0.12198 0.03400
H 	H 	0.22392 0.30411 0.50186 0.02400
N 	N 	0.49939 0.49914 0.14280 -0.24000
N 	N 	0.49939 0.49918 0.85715 -0.21800
O 	O 	0.50001 0.31679 0.61469 -0.46100
O 	O 	0.50000 0.31676 0.38535 -0.44900
O 	O 	0.36785 0.49999 0.61468 -0.44300
O 	O 	0.36784 0.49995 0.38534 -0.44100
O 	O 	0.50000 0.68324 0.61465 -0.44400
O 	O 	0.49999 0.68321 0.38531 -0.43400
O 	O 	0.63216 0.50005 0.61466 -0.46100
O 	O 	0.63215 0.50001 0.38532 -0.45500
Zn	Zn	0.50001 0.50002 0.65313 1.22400
Zn	Zn	0.49999 0.49998 0.34687 1.22800
O 	O 	0.76564 0.72243 0.54214 -0.22200
C 	C 	0.75065 0.77376 0.41438 -0.02400
H 	H 	0.69299 0.72597 0.36423 0.06200
H 	H 	0.81168 0.77281 0.34859 0.03600
H 	H 	0.73190 0.87249 0.42934 0.04300
C 	C 	0.43994 0.89378 0.80870 -0.21600
H 	H 	0.42233 0.93645 0.90803 0.07900
H 	H 	0.38566 0.91297 0.73569 0.08500
H 	H 	0.44434 0.79220 0.82248 0.09100
O 	O 	0.60158 0.90400 0.84556 -0.20200
C 	C 	0.67273 0.84786 0.77476 -0.02300
H 	H 	0.72172 0.81422 0.84899 0.04200
H 	H 	0.70854 0.91595 0.70944 0.04300
H 	H 	0.64802 0.76643 0.71449 0.05900
C 	C 	0.61358 0.15746 0.81542 -0.12000
H 	H 	0.61380 0.14282 0.92584 0.05600
H 	H 	0.67819 0.12525 0.77224 0.05400
H 	H 	0.60944 0.25893 0.79846 0.06000
O 	O 	0.63059 0.62989 0.14372 -0.21800
C 	C 	0.71586 0.58487 0.10522 -0.01300
H 	H 	0.76625 0.61591 0.18119 0.04100
H 	H 	0.73788 0.62372 0.00701 0.03400
H 	H 	0.71701 0.48106 0.10141 0.03500
O 	O 	0.29171 0.48196 0.86138 -0.16000
C 	C 	0.30927 0.60838 0.89768 -0.03700
H 	H 	0.31818 0.66215 0.80406 0.05200
H 	H 	0.36876 0.62659 0.96256 0.05300
H 	H 	0.24971 0.64532 0.95157 0.04800
O 	O 	0.29888 0.48729 0.14178 -0.16600
C 	C 	0.20832 0.44832 0.15873 -0.03000
H 	H 	0.20262 0.36657 0.22575 0.04400
H 	H 	0.17584 0.42613 0.06005 0.04500
H 	H 	0.17089 0.52546 0.20724 0.04500
C 	C 	0.76102 0.27050 0.44609 -0.22400
H 	H 	0.80391 0.21120 0.38057 0.08500
H 	H 	0.73613 0.21756 0.53445 0.08600
H 	H 	0.70252 0.29127 0.38220 0.08700
O 	O 	0.90368 0.16386 0.56820 -0.21300
C 	C 	0.88558 0.16383 0.70828 -0.02000
H 	H 	0.84602 0.24596 0.74107 0.03400
H 	H 	0.94900 0.16007 0.76715 0.03200
H 	H 	0.84438 0.07966 0.73183 0.02800
C 	C 	0.09212 0.14799 0.52835 -0.15900
H 	H 	0.13756 0.14359 0.61669 0.06600
H 	H 	0.04512 0.06659 0.53207 0.07700
H 	H 	0.13173 0.13779 0.43362 0.06300
O 	O 	0.24087 0.72447 0.52009 -0.20000
C 	C 	0.24182 0.77053 0.38765 -0.02400
H 	H 	0.27805 0.86193 0.38851 0.04900
H 	H 	0.17258 0.78587 0.34996 0.04300
H 	H 	0.27830 0.70730 0.31731 0.05300
O 	O 	0.10152 0.83316 0.61468 -0.19100
C 	C 	0.12737 0.83119 0.75155 -0.02300
H 	H 	0.17136 0.75164 0.77150 0.04600
H 	H 	0.06795 0.82743 0.82021 0.03300
H 	H 	0.16621 0.91809 0.77563 0.04000
C 	C 	0.91386 0.84639 0.63067 -0.16900
H 	H 	0.86358 0.82662 0.71084 0.07300
H 	H 	0.96115 0.91620 0.67559 0.07500
H 	H 	0.88325 0.89230 0.54361 0.08000
O 	O 	0.44228 0.11652 0.26768 -0.20700
C 	C 	0.50087 0.10478 0.15594 -0.01900
H 	H 	0.51070 0.00571 0.12585 0.03500
H 	H 	0.56695 0.15198 0.17672 0.03900
H 	H 	0.47041 0.15080 0.06852 0.03500
