data_crystal

_cell_length_a 7.23787
_cell_length_b 15.27729
_cell_length_c 22.30411
_cell_angle_alpha 90.00000
_cell_angle_beta  90.00002
_cell_angle_gamma 90.00001

_symmetry_space_group_name_	'P 1'
_symmetry_space_group_name_H-M	'P 1'

loop_
_symmetry_equiv_pos_as_xyz
  x,y,z

loop_
_atom_site_label
_atom_site_type_symbol
_atom_site_fract_x
_atom_site_fract_y
_atom_site_fract_z
_atom_site_charge
O 	O 	0.39081 0.84481 0.44734 -0.46400
O 	O 	0.10919 0.15519 0.94734 -0.46400
O 	O 	0.89081 0.65519 0.55266 -0.46500
O 	O 	0.60919 0.34481 0.05266 -0.46400
O 	O 	0.72055 0.65582 0.44042 -0.46600
O 	O 	0.77945 0.34418 0.94042 -0.46600
O 	O 	0.22055 0.84418 0.55958 -0.46700
O 	O 	0.27945 0.15582 0.05958 -0.46800
C 	C 	0.55249 0.62743 0.42619 0.33400
C 	C 	0.94751 0.37256 0.92619 0.33400
C 	C 	0.05249 0.87257 0.57381 0.33500
C 	C 	0.44751 0.12743 0.07380 0.33400
O 	O 	0.72053 0.84413 0.44042 -0.47000
O 	O 	0.77947 0.15587 0.94042 -0.47000
O 	O 	0.22053 0.65587 0.55958 -0.47000
O 	O 	0.27947 0.34413 0.05958 -0.47000
O 	O 	0.89083 0.84481 0.55266 -0.46600
O 	O 	0.60917 0.15519 0.05266 -0.46400
O 	O 	0.39083 0.65519 0.44734 -0.46500
O 	O 	0.10917 0.34481 0.94734 -0.46400
C 	C 	0.55251 0.87283 0.42629 0.34000
C 	C 	0.94749 0.12717 0.92629 0.34000
C 	C 	0.05251 0.62717 0.57371 0.34100
C 	C 	0.44749 0.37283 0.07371 0.34000
O 	O 	0.55731 0.74998 0.53682 -0.61500
O 	O 	0.94269 0.25002 0.03682 -0.61200
O 	O 	0.05731 0.75002 0.46318 -0.61500
O 	O 	0.44269 0.24998 0.96318 -0.61400
V 	V 	0.83216 0.74998 0.49317 1.79600
V 	V 	0.66784 0.25002 0.99317 1.79600
V 	V 	0.33216 0.75002 0.50683 1.79600
V 	V 	0.16784 0.24998 0.00683 1.79500
C 	C 	0.95761 0.60159 0.86447 -0.03400
C 	C 	0.54239 0.39841 0.36447 -0.03500
C 	C 	0.45761 0.89841 0.13553 -0.03500
C 	C 	0.04239 0.10159 0.63553 -0.03500
H 	H 	0.98250 0.54035 0.95133 0.05300
H 	H 	0.51750 0.45965 0.45133 0.05300
H 	H 	0.48250 0.95965 0.04867 0.05300
H 	H 	0.01750 0.04035 0.54867 0.05300
H 	H 	0.87147 0.71876 0.77629 0.04600
H 	H 	0.62853 0.28124 0.27629 0.04600
H 	H 	0.37147 0.78124 0.22371 0.04600
H 	H 	0.12853 0.21876 0.72371 0.04600
C 	C 	0.95444 0.44427 0.88196 -0.07900
C 	C 	0.54556 0.55573 0.38196 -0.07900
C 	C 	0.45444 0.05573 0.11804 -0.07900
C 	C 	0.04555 0.94427 0.61804 -0.07900
C 	C 	0.13555 0.47541 0.59761 0.02600
C 	C 	0.36445 0.52460 0.09761 0.02600
C 	C 	0.63555 0.02459 0.40239 0.02600
C 	C 	0.86445 0.97540 0.90239 0.02600
C 	C 	0.16855 0.40808 0.63811 -0.04000
C 	C 	0.33145 0.59192 0.13811 -0.04000
C 	C 	0.66855 0.09192 0.36189 -0.04000
C 	C 	0.83145 0.90808 0.86189 -0.04000
C 	C 	0.11106 0.41559 0.69745 -0.01300
C 	C 	0.38894 0.58441 0.19745 -0.01200
C 	C 	0.61106 0.08441 0.30255 -0.01200
C 	C 	0.88894 0.91559 0.80255 -0.01200
C 	C 	0.01562 0.49034 0.71756 0.00200
C 	C 	0.48438 0.50966 0.21756 0.00000
C 	C 	0.51562 0.00966 0.28244 0.00000
C 	C 	0.98438 0.99034 0.78244 -0.00100
C 	C 	0.99204 0.56149 0.67694 0.05800
C 	C 	0.50796 0.43850 0.17694 0.06000
C 	C 	0.49204 0.93851 0.32306 0.06000
C 	C 	0.00796 0.06150 0.82306 0.06100
C 	C 	0.96621 0.50048 0.77920 0.00200
C 	C 	0.53379 0.49952 0.27920 0.00300
C 	C 	0.46621 0.99952 0.22079 0.00300
C 	C 	0.03379 0.00048 0.72080 0.00400
C 	C 	0.94651 0.58664 0.80182 0.02500
C 	C 	0.55349 0.41336 0.30181 0.02500
C 	C 	0.44651 0.91336 0.19819 0.02400
C 	C 	0.05349 0.08664 0.69818 0.02400
C 	C 	0.91211 0.65481 0.76096 -0.03000
C 	C 	0.58789 0.34519 0.26096 -0.03000
C 	C 	0.41210 0.84519 0.23904 -0.03000
C 	C 	0.08790 0.15481 0.73904 -0.03000
C 	C 	0.92440 0.64101 0.69931 -0.04700
C 	C 	0.57559 0.35899 0.19931 -0.04800
C 	C 	0.42440 0.85899 0.30069 -0.04800
C 	C 	0.07559 0.14101 0.80069 -0.04800
C 	C 	0.93960 0.42905 0.81954 0.01200
C 	C 	0.56040 0.57095 0.31954 0.01100
C 	C 	0.43960 0.07095 0.18046 0.01100
C 	C 	0.06040 0.92905 0.68046 0.01200
C 	C 	0.96898 0.52979 0.90344 0.02100
C 	C 	0.53102 0.47021 0.40344 0.02200
C 	C 	0.46897 0.97021 0.09656 0.02100
C 	C 	0.03103 0.02979 0.59656 0.02100
C 	C 	0.04957 0.55293 0.61620 -0.09200
C 	C 	0.45043 0.44707 0.11620 -0.09400
C 	C 	0.54957 0.94707 0.38380 -0.09400
C 	C 	0.95043 0.05293 0.88380 -0.09400
H 	H 	0.18567 0.46875 0.55204 0.04500
H 	H 	0.31433 0.53125 0.05204 0.04500
H 	H 	0.68567 0.03125 0.44796 0.04500
H 	H 	0.81433 0.96875 0.94796 0.04500
H 	H 	0.15174 0.36498 0.72845 0.04700
H 	H 	0.34826 0.63502 0.22845 0.04600
H 	H 	0.65174 0.13502 0.27154 0.04700
H 	H 	0.84826 0.86498 0.77155 0.04600
H 	H 	0.24474 0.35080 0.62386 0.05800
H 	H 	0.25526 0.64920 0.12386 0.05800
H 	H 	0.74474 0.14920 0.37614 0.05900
H 	H 	0.75526 0.85080 0.87614 0.05900
H 	H 	0.89231 0.69486 0.66964 0.05600
H 	H 	0.60769 0.30513 0.16964 0.05700
H 	H 	0.39231 0.80514 0.33036 0.05600
H 	H 	0.10769 0.19487 0.83036 0.05700
C 	C 	0.97398 0.69102 0.88994 0.11300
H 	H 	0.01860 0.74513 0.86213 0.02400
O 	O 	0.94199 0.70497 0.94285 -0.17900
C 	C 	0.52602 0.30898 0.38994 0.11400
H 	H 	0.48141 0.25487 0.36213 0.02300
O 	O 	0.55802 0.29503 0.44285 -0.17900
C 	C 	0.47398 0.80898 0.11006 0.11400
H 	H 	0.51859 0.75487 0.13787 0.02400
O 	O 	0.44199 0.79503 0.05715 -0.17900
C 	C 	0.02602 0.19102 0.61006 0.11400
H 	H 	0.98140 0.24513 0.63787 0.02300
O 	O 	0.05801 0.20497 0.55715 -0.18000
C 	C 	0.86324 0.34373 0.79860 0.10000
H 	H 	0.85985 0.28782 0.82832 0.02100
O 	O 	0.79052 0.33647 0.74944 -0.18400
C 	C 	0.63676 0.65627 0.29860 0.10000
H 	H 	0.64015 0.71218 0.32832 0.02100
O 	O 	0.70948 0.66353 0.24944 -0.18400
C 	C 	0.36324 0.15627 0.20140 0.10000
H 	H 	0.35985 0.21218 0.17168 0.02100
O 	O 	0.29052 0.16353 0.25056 -0.18400
C 	C 	0.13676 0.84373 0.70140 0.10000
H 	H 	0.14015 0.78782 0.67168 0.02100
O 	O 	0.20948 0.83647 0.75056 -0.18400
