data_crystal

_cell_length_a 7.73479
_cell_length_b 8.55977
_cell_length_c 27.52168
_cell_angle_alpha 91.58217
_cell_angle_beta  87.27556
_cell_angle_gamma 93.92650

_symmetry_space_group_name_	'P 1'
_symmetry_space_group_name_H-M	'P 1'

loop_
_symmetry_equiv_pos_as_xyz
  x,y,z

loop_
_atom_site_label
_atom_site_type_symbol
_atom_site_fract_x
_atom_site_fract_y
_atom_site_fract_z
_atom_site_charge
C 	C 	0.54599 0.79483 0.49879 0.38600
C 	C 	0.51838 0.74509 0.13373 -0.10700
C 	C 	0.51737 0.52795 0.64726 -0.14600
C 	C 	0.47712 0.48731 0.35266 -0.14800
C 	C 	0.52700 0.76619 0.02992 0.03200
C 	C 	0.34497 0.52327 0.97854 0.02500
C 	C 	0.29948 0.55198 0.02778 -0.01300
C 	C 	0.53586 0.76655 0.97743 -0.02000
C 	C 	0.40816 0.65814 0.05437 -0.03400
C 	C 	0.45360 0.63382 0.95265 -0.03000
C 	C 	0.63661 0.86271 0.05935 -0.09900
C 	C 	0.45401 0.20517 0.50124 0.39300
C 	C 	0.29737 0.37823 0.95639 -0.09200
C 	C 	0.61686 0.86925 0.11017 0.07700
C 	C 	0.32294 0.34911 0.90647 0.06300
C 	C 	0.50580 0.50693 0.59415 0.36800
C 	C 	0.49332 0.49194 0.40584 0.36800
C 	C 	0.62347 0.88801 0.94818 0.00500
C 	C 	0.15840 0.46865 0.05270 0.00500
C 	C 	0.57016 0.95843 0.49807 -0.10700
C 	C 	0.42985 0.04157 0.50201 -0.12400
C 	C 	0.57995 0.71258 0.82367 0.18600
C 	C 	0.47804 0.61042 0.90179 0.05600
C 	C 	0.32156 0.49394 0.17659 0.18600
C 	C 	0.43434 0.45815 0.82691 0.19400
C 	C 	0.53472 0.70786 0.18311 0.19700
C 	C 	0.35988 0.53054 0.72538 -0.11500
C 	C 	0.61533 0.53262 0.27288 -0.11500
C 	C 	0.36257 0.50481 0.67558 0.06400
C 	C 	0.62767 0.50963 0.32241 0.06400
C 	C 	0.67367 0.58013 0.67008 0.10700
C 	C 	0.31221 0.47629 0.33147 0.11200
C 	C 	0.66994 0.59177 0.72124 -0.12900
C 	C 	0.40703 0.64562 0.10560 0.06200
C 	C 	0.30298 0.52669 0.28395 -0.13100
C 	C 	0.51391 0.56926 0.74875 0.15200
C 	C 	0.45283 0.54937 0.25378 0.15000
C 	C 	0.83929 0.62724 0.64016 -0.09300
C 	C 	0.97954 0.72428 0.66728 -0.13300
C 	C 	0.14642 0.40824 0.35728 -0.09700
C 	C 	0.04341 0.28854 0.32562 -0.12300
C 	C 	0.69959 0.01319 0.13624 -0.09000
C 	C 	0.64424 0.16565 0.11573 -0.13100
C 	C 	0.25553 0.19086 0.88429 -0.08300
C 	C 	0.56977 0.72756 0.87448 -0.07100
C 	C 	0.19122 0.06253 0.91978 -0.13700
C 	C 	0.68457 0.05035 0.96834 -0.06000
C 	C 	0.70148 0.18497 0.93248 -0.15000
C 	C 	0.99108 0.41361 0.02874 -0.05800
C 	C 	0.83900 0.50216 0.04992 -0.14600
C 	C 	0.29907 0.52745 0.12825 -0.07500
C 	C 	0.64331 0.86144 0.89769 -0.02300
C 	C 	0.16861 0.44655 0.10235 -0.02000
C 	C 	0.40996 0.47053 0.87811 -0.10200
H 	H 	0.01210 0.37879 0.46460 0.07000
H 	H 	0.23775 0.51526 0.74619 0.07300
H 	H 	0.74656 0.92989 0.04470 0.05200
H 	H 	0.24148 0.28612 0.97924 0.05000
H 	H 	0.70252 0.00989 0.49430 0.08500
H 	H 	0.29750 0.99011 0.50579 0.09300
H 	H 	0.92559 0.83016 0.68470 0.06700
H 	H 	0.03450 0.65361 0.69516 0.05900
H 	H 	0.08686 0.76243 0.64110 0.06200
H 	H 	0.89599 0.52018 0.62444 0.06100
H 	H 	0.80516 0.70156 0.61003 0.05900
H 	H 	0.98777 0.62081 0.53555 0.06800
H 	H 	0.98510 0.34564 0.29524 0.05900
H 	H 	0.12857 0.19767 0.31069 0.06600
H 	H 	0.93579 0.23031 0.34807 0.05600
H 	H 	0.17627 0.34198 0.38946 0.06200
H 	H 	0.06336 0.50445 0.36906 0.05900
H 	H 	0.69734 0.18195 0.07798 0.05000
H 	H 	0.50046 0.16539 0.11622 0.06300
H 	H 	0.69405 0.26656 0.13847 0.05700
H 	H 	0.65908 0.02109 0.17513 0.07200
H 	H 	0.84318 0.01130 0.13288 0.05300
H 	H 	0.78705 0.61929 0.74048 0.07900
H 	H 	0.07688 0.09814 0.94187 0.05100
H 	H 	0.29555 0.03618 0.94403 0.05700
H 	H 	0.15223 0.95363 0.89905 0.06100
H 	H 	0.14774 0.21118 0.86042 0.06000
H 	H 	0.36118 0.13877 0.86201 0.06600
H 	H 	0.82251 0.18118 0.90929 0.05700
H 	H 	0.59096 0.17870 0.90877 0.06600
H 	H 	0.70563 0.29912 0.95270 0.05700
H 	H 	0.59094 0.08570 0.99780 0.03700
H 	H 	0.81604 0.04525 0.98207 0.03100
H 	H 	0.17774 0.54101 0.26934 0.08100
H 	H 	0.81826 0.48432 0.08959 0.06000
H 	H 	0.71855 0.46043 0.03181 0.05700
H 	H 	0.86513 0.62915 0.04352 0.06400
H 	H 	0.99758 0.43579 0.98920 0.03900
H 	H 	0.96416 0.28579 0.03379 0.03200
H 	H 	0.71602 0.94761 0.87556 0.05000
H 	H 	0.07130 0.36935 0.12083 0.04600
H 	H 	0.75508 0.51238 0.33716 0.02500
H 	H 	0.24166 0.46752 0.65911 0.02700
H 	H 	0.73283 0.54358 0.24988 0.07500
N 	N 	0.51130 0.58024 0.80102 -0.18200
N 	N 	0.43726 0.58406 0.20331 -0.18200
N 	N 	0.95032 0.45796 0.48688 -0.23200
N 	N 	0.04968 0.54204 0.51312 -0.22900
O 	O 	0.38925 0.73857 0.50322 -0.46200
O 	O 	0.23255 0.36796 0.19625 -0.20700
O 	O 	0.65242 0.78844 0.21023 -0.20800
O 	O 	0.38149 0.32635 0.80244 -0.20600
O 	O 	0.61075 0.26143 0.49678 -0.46500
O 	O 	0.67839 0.71163 0.49481 -0.46200
O 	O 	0.32161 0.28837 0.50519 -0.46400
O 	O 	0.35544 0.51344 0.57545 -0.44600
O 	O 	0.64456 0.48656 0.42455 -0.44500
O 	O 	0.64459 0.48650 0.56704 -0.44700
O 	O 	0.35541 0.51350 0.43296 -0.44700
O 	O 	0.65353 0.83157 0.79697 -0.20000
Zn	Zn	0.30694 0.51799 0.50562 1.23000
Zn	Zn	0.69306 0.48201 0.49438 1.23000
