data_crystal

_cell_length_a 7.74195
_cell_length_b 8.54650
_cell_length_c 23.29208
_cell_angle_alpha 90.69574
_cell_angle_beta  85.88948
_cell_angle_gamma 93.71974

_symmetry_space_group_name_	'P 1'
_symmetry_space_group_name_H-M	'P 1'

loop_
_symmetry_equiv_pos_as_xyz
  x,y,z

loop_
_atom_site_label
_atom_site_type_symbol
_atom_site_fract_x
_atom_site_fract_y
_atom_site_fract_z
_atom_site_charge
C 	C 	0.54596 0.79486 0.49871 0.39200
C 	C 	0.40853 0.35535 0.30343 0.24500
C 	C 	0.59382 0.65583 0.75715 -0.13900
C 	C 	0.40760 0.33997 0.24325 -0.13800
C 	C 	0.51466 0.53210 0.79116 0.17500
C 	C 	0.48720 0.46272 0.20891 0.17700
C 	C 	0.57025 0.95839 0.49792 -0.04000
C 	C 	0.42974 0.04161 0.50197 -0.13700
C 	C 	0.50216 0.49949 0.61041 0.41300
C 	C 	0.49780 0.50029 0.38959 0.41300
C 	C 	0.62912 0.41637 0.11592 0.19500
C 	C 	0.45403 0.20514 0.50125 0.42800
C 	C 	0.37251 0.57734 0.88418 0.19500
C 	C 	0.34580 0.51497 0.12358 0.19700
C 	C 	0.65556 0.47820 0.87648 0.19700
C 	C 	0.34874 0.53025 0.06393 -0.05000
C 	C 	0.65256 0.46270 0.93614 -0.05000
C 	C 	0.49695 0.48794 0.03005 0.03500
C 	C 	0.50437 0.50505 0.97002 0.03700
C 	C 	0.63814 0.42933 0.05609 -0.04900
C 	C 	0.36329 0.56389 0.94400 -0.04900
C 	C 	0.20905 0.58893 0.03760 -0.00900
C 	C 	0.43405 0.40012 0.76617 -0.10200
C 	C 	0.79223 0.40398 0.96246 -0.00700
C 	C 	0.21629 0.60566 0.97810 -0.00900
C 	C 	0.78508 0.38744 0.02198 -0.01100
C 	C 	0.56719 0.59559 0.23353 -0.09900
C 	C 	0.42960 0.38659 0.70695 0.05400
C 	C 	0.57038 0.61101 0.29274 0.05700
C 	C 	0.50890 0.50846 0.67231 -0.15500
C 	C 	0.49094 0.48998 0.32772 -0.15500
C 	C 	0.59187 0.64225 0.69698 0.24600
Cl	Cl	0.69082 0.79322 0.65186 -0.28200
Cl	Cl	0.30895 0.20570 0.34903 -0.28800
H 	H 	0.09401 0.62227 0.06284 0.06100
H 	H 	0.98597 0.61731 0.54317 0.10400
H 	H 	0.08438 0.31221 0.66944 0.17300
H 	H 	0.91601 0.68971 0.32924 0.17600
H 	H 	0.68619 0.07632 0.77733 0.16400
H 	H 	0.27342 0.06481 0.12841 0.17200
H 	H 	0.90725 0.37062 0.93722 0.06000
H 	H 	0.10646 0.65104 0.95897 0.06300
H 	H 	0.89495 0.34215 0.04112 0.05900
H 	H 	0.37578 0.30711 0.79377 0.09200
H 	H 	0.62565 0.68793 0.20567 0.09700
H 	H 	0.70285 0.00967 0.49391 0.09600
H 	H 	0.29714 0.99033 0.50597 0.13600
H 	H 	0.01403 0.38269 0.45683 0.10500
N 	N 	0.48472 0.45917 0.14799 -0.17500
N 	N 	0.51683 0.53443 0.85211 -0.17600
N 	N 	0.95033 0.45795 0.48456 -0.22100
N 	N 	0.04967 0.54205 0.51544 -0.21900
O 	O 	0.38925 0.73857 0.50379 -0.43600
O 	O 	0.23840 0.63140 0.85802 -0.16100
O 	O 	0.20669 0.55692 0.15716 -0.16700
O 	O 	0.79457 0.43614 0.84288 -0.17300
O 	O 	0.46172 0.13908 0.63671 -0.15900
O 	O 	0.26982 0.09798 0.72398 -0.16400
O 	O 	0.16090 0.25698 0.64112 -0.25500
O 	O 	0.72612 0.90090 0.27502 -0.15300
O 	O 	0.53668 0.85884 0.36279 -0.14900
O 	O 	0.83912 0.74396 0.35773 -0.25200
O 	O 	0.66614 0.82996 0.85291 -0.19300
O 	O 	0.61075 0.26143 0.49621 -0.44800
O 	O 	0.88716 0.82917 0.77233 -0.16200
O 	O 	0.61586 0.98660 0.76186 -0.23400
O 	O 	0.37635 0.02605 0.23663 -0.17000
O 	O 	0.11435 0.16694 0.22817 -0.16700
O 	O 	0.33887 0.16197 0.14016 -0.28100
O 	O 	0.67839 0.71162 0.49389 -0.42700
O 	O 	0.32161 0.28838 0.50611 -0.43900
O 	O 	0.35540 0.51352 0.58879 -0.42500
O 	O 	0.64460 0.48648 0.41121 -0.42600
O 	O 	0.64455 0.48657 0.57890 -0.42200
O 	O 	0.35545 0.51343 0.42110 -0.42100
O 	O 	0.76346 0.36285 0.14212 -0.16500
S 	S 	0.33119 0.21326 0.67749 0.33800
S 	S 	0.66729 0.78560 0.32176 0.34000
S 	S 	0.69546 0.82612 0.78846 0.42400
S 	S 	0.30612 0.16911 0.21227 0.42100
Zn	Zn	0.30693 0.51800 0.50661 1.23600
Zn	Zn	0.69307 0.48200 0.49339 1.23600
