data_crystal

_cell_length_a 19.43010
_cell_length_b 11.05112
_cell_length_c 18.69254
_cell_angle_alpha 90.22660
_cell_angle_beta  91.14479
_cell_angle_gamma 89.92693

_symmetry_space_group_name_	'P 1'
_symmetry_space_group_name_H-M	'P 1'

loop_
_symmetry_equiv_pos_as_xyz
  x,y,z

loop_
_atom_site_label
_atom_site_type_symbol
_atom_site_fract_x
_atom_site_fract_y
_atom_site_fract_z
_atom_site_charge
C 	C 	0.75968 0.53423 0.64645 0.38300
C 	C 	0.17626 0.07248 0.54675 0.00300
C 	C 	0.50795 0.95154 0.96162 0.03200
C 	C 	0.01677 0.23372 0.95708 0.00400
C 	C 	0.01869 0.23148 0.03190 0.01600
C 	C 	0.51677 0.73372 0.95708 0.00100
C 	C 	0.51869 0.73148 0.03190 0.01100
C 	C 	0.96289 0.55146 0.04393 -0.08600
C 	C 	0.95915 0.55726 0.96346 -0.08700
C 	C 	0.46290 0.05146 0.04393 -0.05400
C 	C 	0.45915 0.05726 0.96346 -0.05500
C 	C 	0.76088 0.53180 0.85204 0.41400
C 	C 	0.32143 0.55817 0.45589 -0.00700
C 	C 	0.23734 0.52868 0.14622 0.41400
C 	C 	0.26088 0.03180 0.85204 0.45400
C 	C 	0.73734 0.02868 0.14622 0.46300
C 	C 	0.77264 0.12411 0.85180 0.42500
C 	C 	0.22717 0.12806 0.14669 0.41900
C 	C 	0.27264 0.62411 0.85180 0.42500
C 	C 	0.72717 0.62806 0.14669 0.42800
C 	C 	0.97108 0.34738 0.85261 0.42100
C 	C 	0.03128 0.34647 0.14564 0.43200
C 	C 	0.47108 0.84738 0.85261 0.42200
C 	C 	0.67626 0.57248 0.54675 -0.01200
C 	C 	0.53128 0.84647 0.14564 0.42700
C 	C 	0.76394 0.10224 0.41753 -0.12600
C 	C 	0.23799 0.10376 0.58262 -0.10100
C 	C 	0.26394 0.60224 0.41753 -0.08900
C 	C 	0.73798 0.60376 0.58262 -0.08900
C 	C 	0.72643 0.19476 0.44876 -0.00400
C 	C 	0.28094 0.18487 0.54864 -0.00900
C 	C 	0.22643 0.69476 0.44876 -0.02600
C 	C 	0.78093 0.68488 0.54865 -0.02700
C 	C 	0.73945 0.22968 0.52016 0.06000
C 	C 	0.65169 0.19106 0.45954 0.12200
C 	C 	0.26873 0.21784 0.47727 0.06900
C 	C 	0.23944 0.72968 0.52016 0.06800
C 	C 	0.76873 0.71785 0.47728 0.06900
C 	C 	0.89823 0.20033 0.33485 -0.02200
C 	C 	0.08257 0.15360 0.67127 -0.02800
C 	C 	0.39823 0.70034 0.33485 -0.01800
C 	C 	0.58257 0.65360 0.67128 -0.01900
C 	C 	0.35540 0.17009 0.53704 0.11400
C 	C 	0.15169 0.69106 0.45954 0.13000
C 	C 	0.85540 0.67009 0.53704 0.12800
C 	C 	0.66517 0.23410 0.53545 -0.16300
C 	C 	0.34257 0.20750 0.45990 -0.15600
C 	C 	0.16516 0.73410 0.53545 -0.16700
C 	C 	0.24052 0.53427 0.35351 0.38500
C 	C 	0.84257 0.70752 0.45990 -0.16400
C 	C 	0.78930 0.16899 0.56155 -0.08100
C 	C 	0.21333 0.16858 0.43834 -0.09400
C 	C 	0.28929 0.66899 0.56155 -0.10000
C 	C 	0.71333 0.66858 0.43834 -0.10300
C 	C 	0.99842 0.34224 0.42579 -0.11500
C 	C 	0.00580 0.33406 0.57692 -0.11300
C 	C 	0.49842 0.84224 0.42580 -0.10900
C 	C 	0.50580 0.83405 0.57692 -0.10600
C 	C 	0.97574 0.12317 0.42194 0.09600
C 	C 	0.25968 0.03422 0.64645 0.43400
C 	C 	0.01250 0.10821 0.56963 0.08900
C 	C 	0.47574 0.62317 0.42194 0.10400
C 	C 	0.51250 0.60820 0.56963 0.10500
C 	C 	0.98569 0.01291 0.45498 -0.03600
C 	C 	0.00318 0.00538 0.52718 -0.02600
C 	C 	0.48569 0.51292 0.45498 -0.07000
C 	C 	0.50318 0.50538 0.52718 -0.07200
C 	C 	0.00342 0.22436 0.53716 0.01500
C 	C 	0.99239 0.23036 0.46096 0.00200
C 	C 	0.50342 0.72436 0.53716 0.00400
C 	C 	0.74052 0.03427 0.35351 0.44500
C 	C 	0.49239 0.73036 0.46096 0.00400
C 	C 	0.01560 0.44272 0.54030 0.06000
C 	C 	0.99859 0.44917 0.46714 0.04700
C 	C 	0.51561 0.94271 0.54030 0.01200
C 	C 	0.49860 0.94917 0.46714 0.01700
C 	C 	0.79286 0.17520 0.64007 0.28500
C 	C 	0.20774 0.17461 0.36012 0.29200
C 	C 	0.29286 0.67520 0.64007 0.28900
C 	C 	0.70774 0.67461 0.36012 0.29200
C 	C 	0.03430 0.54907 0.57731 -0.04500
C 	C 	0.83418 0.09118 0.52632 -0.03100
C 	C 	0.98462 0.56408 0.43742 -0.03000
C 	C 	0.53430 0.04907 0.57731 0.00900
C 	C 	0.48463 0.06408 0.43743 0.01300
C 	C 	0.01960 0.66069 0.54817 -0.00600
C 	C 	0.99597 0.66842 0.47774 -0.02500
C 	C 	0.51961 0.16069 0.54817 -0.02400
C 	C 	0.49597 0.16843 0.47775 -0.02300
C 	C 	0.74210 0.06371 0.07102 -0.18300
C 	C 	0.25272 0.06737 0.92622 -0.15400
C 	C 	0.24210 0.56371 0.07102 -0.17400
C 	C 	0.16369 0.10529 0.47603 -0.00100
C 	C 	0.75272 0.56737 0.92622 -0.17900
C 	C 	0.80060 0.02310 0.03703 0.09000
C 	C 	0.21911 0.98313 0.96879 0.04100
C 	C 	0.30060 0.52310 0.03703 0.07500
C 	C 	0.71911 0.48313 0.96879 0.06200
C 	C 	0.80663 0.02862 0.96447 0.06900
C 	C 	0.21692 0.99466 0.04158 0.01700
C 	C 	0.30662 0.52862 0.96447 0.07200
C 	C 	0.71692 0.49466 0.04158 0.05600
C 	C 	0.68888 0.09534 0.95181 0.13800
C 	C 	0.33418 0.59118 0.52632 -0.00000
C 	C 	0.29515 0.16407 0.03535 0.12500
C 	C 	0.18888 0.59534 0.95181 0.13700
C 	C 	0.79515 0.66407 0.03535 0.13100
C 	C 	0.68382 0.09641 0.02700 0.14400
C 	C 	0.29252 0.15847 0.96025 0.13500
C 	C 	0.18382 0.59641 0.02700 0.13400
C 	C 	0.79252 0.65847 0.96025 0.13100
C 	C 	0.87369 0.05689 0.05150 -0.05600
C 	C 	0.14660 0.93882 0.96339 -0.12700
C 	C 	0.37369 0.55689 0.05150 -0.08900
C 	C 	0.66368 0.60528 0.47603 0.00000
C 	C 	0.64660 0.43882 0.96339 -0.09400
C 	C 	0.88061 0.06474 0.97132 -0.05400
C 	C 	0.14424 0.95179 0.04373 -0.11500
C 	C 	0.38061 0.56474 0.97132 -0.09300
C 	C 	0.64424 0.45179 0.04373 -0.08800
C 	C 	0.75369 0.07461 0.92087 -0.16900
C 	C 	0.25039 0.08933 0.07640 -0.13100
C 	C 	0.25369 0.57461 0.92087 -0.18000
C 	C 	0.75039 0.58934 0.07640 -0.17600
C 	C 	0.97142 0.34497 0.64720 0.39300
C 	C 	0.82143 0.05817 0.45589 0.06900
C 	C 	0.03001 0.34713 0.35389 0.40300
C 	C 	0.47142 0.84497 0.64720 0.39100
C 	C 	0.53001 0.84713 0.35389 0.39600
C 	C 	0.01209 0.33958 0.07103 -0.14800
C 	C 	0.00484 0.34387 0.92191 -0.13400
C 	C 	0.51209 0.83958 0.07103 -0.14500
C 	C 	0.50484 0.84387 0.92191 -0.13700
C 	C 	0.01085 0.44821 0.03446 0.07700
C 	C 	0.00795 0.45154 0.96162 0.06500
C 	C 	0.51085 0.94821 0.03446 0.04200
Cr	Cr	0.88586 0.49168 0.74963 1.53000
Cr	Cr	0.11243 0.17931 0.24985 1.53200
Cr	Cr	0.38757 0.67931 0.75015 1.53000
Cr	Cr	0.61243 0.67931 0.24985 1.53000
Cr	Cr	0.11414 0.49168 0.25037 1.53000
Cr	Cr	0.38586 0.99168 0.74963 1.51700
Cr	Cr	0.61414 0.99168 0.25037 1.51700
Cr	Cr	0.73049 0.33297 0.74872 1.53000
Cr	Cr	0.26951 0.33297 0.25128 1.53100
Cr	Cr	0.23049 0.83297 0.74872 1.52800
Cr	Cr	0.76951 0.83297 0.25128 1.52900
Cr	Cr	0.88757 0.17931 0.75015 1.53200
H 	H 	0.87433 0.04372 0.55522 0.06100
H 	H 	0.14351 0.84366 0.94491 0.07500
H 	H 	0.40395 0.48151 0.07570 0.05800
H 	H 	0.64351 0.34366 0.94491 0.07100
H 	H 	0.87906 0.14570 0.07927 0.04800
H 	H 	0.11191 0.00266 0.93429 0.08800
H 	H 	0.37906 0.64570 0.07927 0.05000
H 	H 	0.61191 0.50266 0.93429 0.05500
H 	H 	0.88845 0.15880 0.95263 0.05200
H 	H 	0.10783 0.02215 0.06078 0.08500
H 	H 	0.38845 0.65880 0.95263 0.05900
H 	H 	0.11868 0.06963 0.44882 0.04800
H 	H 	0.60783 0.52215 0.06078 0.05600
H 	H 	0.91582 0.99539 0.94904 0.02000
H 	H 	0.13996 0.86531 0.07241 0.05000
H 	H 	0.41582 0.49539 0.94904 0.05800
H 	H 	0.63996 0.36531 0.07241 0.05100
H 	H 	0.01644 0.14915 0.92768 0.03500
H 	H 	0.02195 0.14588 0.05914 0.03300
H 	H 	0.51644 0.64915 0.92768 0.02700
H 	H 	0.52196 0.64588 0.05914 0.02700
H 	H 	0.98799 0.63172 0.06903 0.05700
H 	H 	0.37433 0.54372 0.55522 0.04500
H 	H 	0.90729 0.53389 0.94198 0.06800
H 	H 	0.48799 0.13171 0.06903 0.06000
H 	H 	0.40729 0.03389 0.94198 0.07300
H 	H 	0.91395 0.52269 0.06847 0.05200
H 	H 	0.98206 0.64110 0.94151 0.06500
H 	H 	0.41395 0.02269 0.06847 0.05800
H 	H 	0.48206 0.14110 0.94151 0.06700
H 	H 	0.85344 0.98904 0.43366 -0.00400
H 	H 	0.13981 0.01371 0.57134 0.05300
H 	H 	0.35344 0.48904 0.43366 0.04400
H 	H 	0.61868 0.56962 0.44882 0.04200
H 	H 	0.63981 0.51371 0.57134 0.04400
H 	H 	0.62253 0.25546 0.42489 0.00700
H 	H 	0.38665 0.23484 0.56960 0.01000
H 	H 	0.12252 0.75547 0.42489 -0.00200
H 	H 	0.88665 0.73485 0.56960 -0.00100
H 	H 	0.64620 0.32642 0.54470 0.06800
H 	H 	0.36580 0.29552 0.44690 0.06200
H 	H 	0.14620 0.82642 0.54470 0.05900
H 	H 	0.86579 0.79553 0.44691 0.06000
H 	H 	0.65177 0.16848 0.57753 0.08100
H 	H 	0.02922 0.73965 0.58050 0.01800
H 	H 	0.35186 0.13511 0.41987 0.08400
H 	H 	0.15177 0.66847 0.57753 0.08000
H 	H 	0.85186 0.63512 0.41987 0.07800
H 	H 	0.97666 0.93305 0.42338 0.01000
H 	H 	0.00765 0.91841 0.55148 0.01100
H 	H 	0.47665 0.43306 0.42338 0.04300
H 	H 	0.50763 0.41841 0.55148 0.04700
H 	H 	0.96338 0.57445 0.38388 0.04200
H 	H 	0.05691 0.54603 0.63076 0.04600
H 	H 	0.46339 0.07445 0.38388 0.04500
H 	H 	0.98651 0.75432 0.45402 0.02300
H 	H 	0.55692 0.04603 0.63076 0.04600
H 	H 	0.63735 0.09025 0.86196 0.15300
H 	H 	0.36117 0.21188 0.10797 0.13800
H 	H 	0.13735 0.59025 0.86196 0.14500
H 	H 	0.86117 0.71188 0.10797 0.13600
H 	H 	0.62947 0.17469 0.09927 0.14200
H 	H 	0.30995 0.24888 0.87353 0.14700
H 	H 	0.12947 0.67469 0.09927 0.13800
H 	H 	0.80995 0.74888 0.87353 0.14100
H 	H 	0.15361 0.51935 0.48950 0.14900
H 	H 	0.52923 0.23965 0.58051 0.02600
H 	H 	0.84779 0.49626 0.51279 0.14700
H 	H 	0.65361 0.01935 0.48951 0.15700
H 	H 	0.34783 0.99627 0.51274 0.10500
H 	H 	0.87583 0.24582 0.38224 0.04300
H 	H 	0.85688 0.15038 0.30604 0.05000
H 	H 	0.91550 0.26996 0.29672 0.03800
H 	H 	0.10917 0.21330 0.63304 0.04400
H 	H 	0.12009 0.08955 0.69479 0.04900
H 	H 	0.06554 0.20910 0.71715 0.03900
H 	H 	0.37583 0.74582 0.38224 0.03800
H 	H 	0.48651 0.25432 0.45403 0.02700
H 	H 	0.35689 0.65038 0.30604 0.03900
H 	H 	0.41550 0.76997 0.29672 0.03200
H 	H 	0.60917 0.71330 0.63305 0.03700
H 	H 	0.62009 0.58955 0.69479 0.03600
H 	H 	0.56554 0.70910 0.71716 0.03100
H 	H 	0.90395 0.98151 0.07570 0.02500
O 	O 	0.95702 0.45164 0.66992 -0.46400
O 	O 	0.16804 0.09329 0.16987 -0.46700
O 	O 	0.33196 0.59329 0.83013 -0.48000
O 	O 	0.66804 0.59329 0.16987 -0.48100
O 	O 	0.94560 0.25058 0.82486 -0.53300
O 	O 	0.05440 0.25058 0.17514 -0.53200
O 	O 	0.44560 0.75058 0.82486 -0.53700
O 	O 	0.55440 0.75058 0.17514 -0.53600
O 	O 	0.83464 0.33465 0.74950 -0.73600
O 	O 	0.16536 0.33465 0.25050 -0.73500
O 	O 	0.33464 0.83465 0.74950 -0.74400
O 	O 	0.04298 0.45164 0.33008 -0.47000
O 	O 	0.66536 0.83465 0.25050 -0.74300
O 	O 	0.82145 0.54344 0.67461 -0.50500
O 	O 	0.17855 0.54344 0.32539 -0.50500
O 	O 	0.32145 0.04344 0.67461 -0.49400
O 	O 	0.67855 0.04344 0.32539 -0.49800
O 	O 	0.71532 0.45865 0.66810 -0.48300
O 	O 	0.28468 0.45865 0.33190 -0.48500
O 	O 	0.21532 0.95865 0.66810 -0.53000
O 	O 	0.78468 0.95865 0.33190 -0.53000
O 	O 	0.73717 0.20959 0.67453 -0.47500
O 	O 	0.45702 0.95164 0.66992 -0.48200
O 	O 	0.26283 0.20959 0.32547 -0.47400
O 	O 	0.23717 0.70959 0.67453 -0.48100
O 	O 	0.76283 0.70959 0.32547 -0.47900
O 	O 	0.83271 0.09274 0.66958 -0.42400
O 	O 	0.16729 0.09274 0.33042 -0.42500
O 	O 	0.33271 0.59274 0.66958 -0.43300
O 	O 	0.66729 0.59274 0.33042 -0.43600
O 	O 	0.94629 0.25006 0.67604 -0.50300
O 	O 	0.05371 0.25006 0.32396 -0.50200
O 	O 	0.44629 0.75006 0.67604 -0.50400
O 	O 	0.54298 0.95164 0.33008 -0.48900
O 	O 	0.55371 0.75006 0.32396 -0.50500
O 	O 	0.95627 0.45220 0.83047 -0.49400
O 	O 	0.04373 0.45220 0.16953 -0.49000
O 	O 	0.45627 0.95220 0.83047 -0.51000
O 	O 	0.54373 0.95220 0.16953 -0.50600
O 	O 	0.82076 0.54395 0.82344 -0.52000
O 	O 	0.17924 0.54395 0.17656 -0.51900
O 	O 	0.32076 0.04395 0.82344 -0.50700
O 	O 	0.67924 0.04395 0.17656 -0.50900
O 	O 	0.71457 0.45921 0.82864 -0.48400
O 	O 	0.73647 0.21010 0.82336 -0.52100
O 	O 	0.28543 0.45921 0.17136 -0.47200
O 	O 	0.21457 0.95921 0.82864 -0.52400
O 	O 	0.78543 0.95921 0.17136 -0.51400
O 	O 	0.63069 0.12124 0.91115 -0.27200
O 	O 	0.33813 0.24966 0.06592 -0.26400
O 	O 	0.13069 0.62124 0.91115 -0.27900
O 	O 	0.83813 0.74967 0.06592 -0.27100
O 	O 	0.62129 0.12954 0.05430 -0.26600
O 	O 	0.32946 0.24307 0.92273 -0.27400
O 	O 	0.12129 0.62954 0.05430 -0.27300
O 	O 	0.26353 0.21010 0.17664 -0.52100
O 	O 	0.82946 0.74307 0.92273 -0.28100
O 	O 	0.12750 0.57119 0.45504 -0.27200
O 	O 	0.87674 0.54878 0.54447 -0.27100
O 	O 	0.62750 0.07119 0.45504 -0.26200
O 	O 	0.37673 0.04877 0.54448 -0.22300
O 	O 	0.95275 0.11876 0.35066 -0.19500
O 	O 	0.02631 0.08679 0.64215 -0.19800
O 	O 	0.45275 0.61877 0.35066 -0.20800
O 	O 	0.52631 0.58679 0.64215 -0.21400
O 	O 	0.23647 0.71010 0.82336 -0.52400
O 	O 	0.76353 0.71010 0.17664 -0.52800
O 	O 	0.83196 0.09329 0.83013 -0.47100
