data_crystal

_cell_length_a 7.81101
_cell_length_b 8.92193
_cell_length_c 26.62208
_cell_angle_alpha 92.95493
_cell_angle_beta  86.00225
_cell_angle_gamma 92.63963

_symmetry_space_group_name_	'P 1'
_symmetry_space_group_name_H-M	'P 1'

loop_
_symmetry_equiv_pos_as_xyz
  x,y,z

loop_
_atom_site_label
_atom_site_type_symbol
_atom_site_fract_x
_atom_site_fract_y
_atom_site_fract_z
_atom_site_charge
C 	C 	0.54392 0.79400 0.49950 0.32800
C 	C 	0.20100 0.72252 0.14706 -0.07900
C 	C 	0.50474 0.52695 0.64869 -0.12200
C 	C 	0.48962 0.52522 0.35248 -0.12200
C 	C 	0.24117 0.73620 0.04197 0.01500
C 	C 	0.13711 0.48578 0.98072 0.01000
C 	C 	0.13416 0.47280 0.03353 0.01700
C 	C 	0.29022 0.73207 0.99007 0.01300
C 	C 	0.18304 0.60054 0.06380 -0.03000
C 	C 	0.23072 0.60931 0.95929 -0.02600
C 	C 	0.25302 0.86854 0.07322 -0.05900
C 	C 	0.45603 0.20601 0.50050 0.32500
C 	C 	0.05640 0.37850 0.94835 -0.04500
C 	C 	0.22271 0.86235 0.12539 0.00700
C 	C 	0.07540 0.39021 0.89615 0.00400
C 	C 	0.50192 0.50218 0.59454 0.36800
C 	C 	0.49759 0.49987 0.40549 0.36900
C 	C 	0.40684 0.83997 0.96860 -0.05800
C 	C 	0.09287 0.33602 0.05707 -0.05900
C 	C 	0.56314 0.95551 0.50670 -0.04500
C 	C 	0.43654 0.04449 0.49337 -0.03100
C 	C 	0.44667 0.69398 0.83510 0.18500
C 	C 	0.26972 0.60772 0.90687 0.05600
C 	C 	0.19202 0.44577 0.18947 0.18600
C 	C 	0.22414 0.50597 0.82303 0.18900
C 	C 	0.20381 0.70696 0.19883 0.19100
C 	C 	0.47164 0.42512 0.73161 -0.05600
C 	C 	0.40998 0.69024 0.29012 -0.05600
C 	C 	0.51121 0.40580 0.67955 0.03600
C 	C 	0.46013 0.66942 0.33851 0.03600
C 	C 	0.46720 0.66952 0.66953 0.04900
C 	C 	0.49223 0.40774 0.31600 0.04800
C 	C 	0.42815 0.69040 0.72095 -0.09400
C 	C 	0.18165 0.59169 0.11627 0.05900
C 	C 	0.43363 0.43248 0.26877 -0.10000
C 	C 	0.42453 0.56889 0.75231 0.12100
C 	C 	0.35460 0.56480 0.25970 0.11100
C 	C 	0.01741 0.40016 0.43835 -0.12800
C 	C 	0.98264 0.60000 0.56163 -0.16100
C 	C 	0.46549 0.83080 0.26774 0.05700
C 	C 	0.38743 0.96106 0.28602 -0.05300
C 	C 	0.38659 0.07905 0.25459 -0.00600
C 	C 	0.48506 0.07729 0.20827 -0.03600
C 	C 	0.58507 0.95513 0.19375 -0.01000
C 	C 	0.39394 0.71064 0.88645 -0.07800
C 	C 	0.57344 0.83003 0.22314 -0.05700
C 	C 	0.45603 0.29161 0.76266 0.05800
C 	C 	0.33797 0.17391 0.75036 -0.05600
C 	C 	0.28547 0.06815 0.78571 -0.00200
C 	C 	0.35374 0.07664 0.83284 -0.03500
C 	C 	0.48136 0.18590 0.84392 -0.00500
C 	C 	0.53323 0.29306 0.80885 -0.05900
C 	C 	0.71604 0.01415 0.53551 -0.12300
C 	C 	0.28281 0.98590 0.46491 -0.13600
C 	C 	0.15767 0.45261 0.13845 -0.07700
C 	C 	0.46514 0.82428 0.91800 0.00500
C 	C 	0.10911 0.32527 0.10876 0.00700
C 	C 	0.18730 0.50123 0.87511 -0.07400
H 	H 	0.45928 0.76312 0.64550 0.02200
H 	H 	0.01048 0.30680 0.87235 0.04600
H 	H 	0.28208 0.97718 0.05767 0.04200
H 	H 	0.97448 0.28746 0.96282 0.03400
H 	H 	0.46357 0.93066 0.99127 0.04200
H 	H 	0.06014 0.23383 0.03564 0.04500
H 	H 	0.91622 0.32770 0.42101 0.05100
H 	H 	0.05133 0.49375 0.41308 0.07500
H 	H 	0.12564 0.32749 0.44195 0.06000
H 	H 	0.08389 0.67250 0.57894 0.06500
H 	H 	0.87441 0.67265 0.55801 0.06400
H 	H 	0.53444 0.29835 0.32431 0.02400
H 	H 	0.94876 0.50650 0.58693 0.07600
H 	H 	0.30426 0.96198 0.32038 0.05300
H 	H 	0.29929 0.16532 0.26620 0.05400
H 	H 	0.48024 0.16681 0.18260 0.04300
H 	H 	0.66141 0.95308 0.15821 0.03400
H 	H 	0.63786 0.72939 0.20950 0.05300
H 	H 	0.27591 0.17125 0.71517 0.05600
H 	H 	0.18709 0.98293 0.77728 0.03700
H 	H 	0.30503 0.99989 0.86091 0.04500
H 	H 	0.53494 0.19132 0.88042 0.03300
H 	H 	0.39189 0.79997 0.73606 0.07000
H 	H 	0.62473 0.38260 0.81896 0.05800
H 	H 	0.77864 0.92258 0.55296 0.05900
H 	H 	0.81476 0.06902 0.50968 0.07000
H 	H 	0.67417 0.09367 0.56699 0.06700
H 	H 	0.21986 0.07739 0.44753 0.06700
H 	H 	0.32364 0.90621 0.43342 0.06900
H 	H 	0.18462 0.93126 0.49095 0.07500
H 	H 	0.45476 0.35321 0.23817 0.06900
H 	H 	0.56236 0.90408 0.90337 0.03800
H 	H 	0.08714 0.21675 0.12507 0.04100
H 	H 	0.48513 0.76511 0.36414 0.02700
H 	H 	0.53627 0.29496 0.66275 0.02700
H 	H 	0.23070 0.96511 0.14865 0.04200
N 	N 	0.36304 0.59088 0.80440 -0.17500
N 	N 	0.24966 0.57317 0.21598 -0.17100
N 	N 	0.95032 0.45796 0.48688 -0.19000
N 	N 	0.04968 0.54204 0.51312 -0.17500
O 	O 	0.38925 0.73857 0.50322 -0.42900
O 	O 	0.16184 0.31549 0.21226 -0.20300
O 	O 	0.14683 0.81749 0.23091 -0.19300
O 	O 	0.12480 0.42429 0.79138 -0.19300
O 	O 	0.61075 0.26143 0.49678 -0.42700
O 	O 	0.67839 0.71163 0.49481 -0.42400
O 	O 	0.32161 0.28837 0.50519 -0.42100
O 	O 	0.35544 0.51344 0.57545 -0.46300
O 	O 	0.64456 0.48656 0.42455 -0.46300
O 	O 	0.64459 0.48650 0.56704 -0.46600
O 	O 	0.35541 0.51350 0.43296 -0.46600
O 	O 	0.58125 0.77864 0.81621 -0.20000
Zn	Zn	0.30694 0.51799 0.50562 1.22700
Zn	Zn	0.69306 0.48201 0.49438 1.22700
