data_crystal

_cell_length_a 18.94909
_cell_length_b 10.89406
_cell_length_c 18.77854
_cell_angle_alpha 89.99887
_cell_angle_beta  90.17109
_cell_angle_gamma 89.87483

_symmetry_space_group_name_	'P 1'
_symmetry_space_group_name_H-M	'P 1'

loop_
_symmetry_equiv_pos_as_xyz
  x,y,z

loop_
_atom_site_label
_atom_site_type_symbol
_atom_site_fract_x
_atom_site_fract_y
_atom_site_fract_z
_atom_site_charge
C 	C 	0.73037 0.37793 0.14622 0.43200
C 	C 	0.98542 0.99570 0.03501 -0.01800
C 	C 	0.99380 0.77219 0.03668 0.00600
C 	C 	0.50061 0.04734 0.03554 0.08600
C 	C 	0.50711 0.04849 0.96159 0.09800
C 	C 	0.00061 0.54734 0.03554 0.08000
C 	C 	0.00711 0.54849 0.96159 0.14400
C 	C 	0.59528 0.78459 0.43306 0.04800
C 	C 	0.55804 0.66428 0.45026 -0.07000
C 	C 	0.47859 0.68173 0.45531 -0.14400
C 	C 	0.36917 0.72483 0.60981 0.03700
C 	C 	0.43887 0.72617 0.65136 -0.04700
C 	C 	0.50884 0.49716 0.96500 -0.06400
C 	C 	0.45055 0.60769 0.69300 -0.15000
C 	C 	0.09528 0.28458 0.43307 0.05400
C 	C 	0.05805 0.16427 0.45026 -0.08400
C 	C 	0.97860 0.18172 0.45534 -0.12900
C 	C 	0.86916 0.22482 0.60982 0.04300
C 	C 	0.93884 0.22620 0.65141 -0.05700
C 	C 	0.95053 0.10769 0.69303 -0.12900
C 	C 	0.48542 0.49570 0.03501 -0.07700
C 	C 	0.69816 0.86513 0.03762 0.00600
C 	C 	0.30379 0.86845 0.96286 -0.02800
C 	C 	0.19816 0.36513 0.03762 -0.00400
C 	C 	0.80379 0.36845 0.96286 0.01200
C 	C 	0.70003 0.85268 0.96400 0.00600
C 	C 	0.30167 0.85697 0.03657 0.04800
C 	C 	0.20003 0.35268 0.96400 0.01700
C 	C 	0.26954 0.37784 0.85372 0.43100
C 	C 	0.80168 0.35697 0.03657 0.00400
C 	C 	0.75042 0.91797 0.92446 -0.06900
C 	C 	0.24869 0.91770 0.07519 -0.17200
C 	C 	0.25042 0.41796 0.92446 -0.12200
C 	C 	0.74869 0.41770 0.07519 -0.11500
C 	C 	0.79511 0.00163 0.95811 -0.03300
C 	C 	0.20113 0.99558 0.04044 0.15000
C 	C 	0.29511 0.50163 0.95811 0.01700
C 	C 	0.70112 0.49557 0.04044 0.00300
C 	C 	0.79489 0.01070 0.03082 -0.02700
C 	C 	0.23037 0.87793 0.14622 0.45700
C 	C 	0.20135 0.00275 0.96775 -0.13200
C 	C 	0.29489 0.51070 0.03082 -0.00100
C 	C 	0.70135 0.50275 0.96775 0.01300
C 	C 	0.74700 0.94200 0.07138 -0.08400
C 	C 	0.25243 0.93944 0.92811 -0.03700
C 	C 	0.24700 0.44200 0.07138 -0.11100
C 	C 	0.75243 0.43944 0.92811 -0.12000
C 	C 	0.48496 0.05566 0.45805 -0.02700
C 	C 	0.48213 0.05333 0.53095 -0.03500
C 	C 	0.98496 0.55566 0.45805 0.01100
C 	C 	0.76954 0.87784 0.85372 0.41800
C 	C 	0.98213 0.55333 0.53095 0.00400
C 	C 	0.48572 0.16262 0.57023 -0.10700
C 	C 	0.49834 0.16578 0.42261 -0.11200
C 	C 	0.98572 0.66262 0.57023 -0.10900
C 	C 	0.99834 0.66578 0.42261 -0.10900
C 	C 	0.53045 0.15474 0.14658 0.42100
C 	C 	0.47029 0.15496 0.85279 0.42500
C 	C 	0.03045 0.65474 0.14658 0.40500
C 	C 	0.97029 0.65496 0.85279 0.44000
C 	C 	0.49276 0.27503 0.53459 -0.00200
C 	C 	0.52065 0.38783 0.92822 0.12900
C 	C 	0.49789 0.27670 0.46052 0.00200
C 	C 	0.99276 0.77503 0.53459 -0.00200
C 	C 	0.99789 0.77670 0.46052 0.01900
C 	C 	0.82234 0.93863 0.45544 0.06800
C 	C 	0.17641 0.91933 0.54831 0.06900
C 	C 	0.32234 0.43863 0.45544 0.05400
C 	C 	0.67641 0.41934 0.54831 0.05600
C 	C 	0.83231 0.90909 0.52603 -0.05300
C 	C 	0.16654 0.89267 0.47710 -0.05400
C 	C 	0.33231 0.40909 0.52603 -0.05300
C 	C 	0.47651 0.38498 0.07118 0.13600
C 	C 	0.66654 0.39268 0.47710 -0.05300
C 	C 	0.78064 0.84470 0.56325 -0.01300
C 	C 	0.22191 0.84659 0.43631 -0.01300
C 	C 	0.28064 0.34470 0.56325 -0.02300
C 	C 	0.72191 0.34660 0.43632 -0.02200
C 	C 	0.72374 0.79284 0.52550 -0.09700
C 	C 	0.28629 0.81659 0.46932 -0.09500
C 	C 	0.22375 0.29283 0.52550 -0.09700
C 	C 	0.78629 0.31659 0.46932 -0.09600
C 	C 	0.71371 0.82150 0.45298 0.20600
C 	C 	0.02065 0.88783 0.92822 0.12500
C 	C 	0.29726 0.84421 0.54109 0.20500
C 	C 	0.21372 0.32150 0.45297 0.19700
C 	C 	0.79725 0.34420 0.54109 0.19500
C 	C 	0.76061 0.90322 0.41981 -0.19600
C 	C 	0.24303 0.90372 0.57958 -0.20300
C 	C 	0.26061 0.40322 0.41981 -0.18900
C 	C 	0.74303 0.40372 0.57958 -0.19300
C 	C 	0.74060 0.97271 0.14605 0.46300
C 	C 	0.25926 0.97188 0.85372 0.44600
C 	C 	0.24060 0.47271 0.14605 0.42400
C 	C 	0.97651 0.88498 0.07118 0.12500
C 	C 	0.75926 0.47188 0.85372 0.42800
C 	C 	0.71112 0.33049 0.35977 0.29200
C 	C 	0.28944 0.32968 0.64035 0.28600
C 	C 	0.21112 0.83049 0.35977 0.29100
C 	C 	0.78944 0.82968 0.64035 0.28400
C 	C 	0.53029 0.15751 0.35246 0.42000
C 	C 	0.46590 0.15674 0.64494 0.42000
C 	C 	0.03028 0.65751 0.35246 0.41400
C 	C 	0.96590 0.65674 0.64494 0.42400
C 	C 	0.74311 0.96674 0.35302 0.50000
C 	C 	0.00884 0.99716 0.96500 -0.04000
C 	C 	0.25779 0.96813 0.64633 0.50300
C 	C 	0.24311 0.46674 0.35302 0.45100
C 	C 	0.75779 0.46813 0.64633 0.45400
C 	C 	0.50357 0.16065 0.92423 -0.13700
C 	C 	0.49960 0.15913 0.07392 -0.12900
C 	C 	0.00357 0.66065 0.92423 -0.15300
C 	C 	0.99960 0.65913 0.07392 -0.10100
C 	C 	0.50655 0.27331 0.96216 0.01000
C 	C 	0.49380 0.27219 0.03668 -0.00500
C 	C 	0.00655 0.77331 0.96216 0.00900
Cr	Cr	0.77200 0.16964 0.25011 1.53700
Cr	Cr	0.38333 0.01062 0.74916 1.52900
Cr	Cr	0.11667 0.51062 0.25084 1.54000
Cr	Cr	0.88333 0.51062 0.74916 1.54300
Cr	Cr	0.22800 0.16964 0.74989 1.53600
Cr	Cr	0.27200 0.66964 0.25011 1.53900
Cr	Cr	0.72800 0.66964 0.74989 1.53800
Cr	Cr	0.61496 0.32335 0.24926 1.53800
Cr	Cr	0.38504 0.32335 0.75074 1.53900
Cr	Cr	0.11496 0.82335 0.24926 1.53900
Cr	Cr	0.88504 0.82335 0.75074 1.54200
Cr	Cr	0.61667 0.01062 0.25084 1.52800
H 	H 	0.86157 0.99527 0.42987 0.03500
H 	H 	0.32944 0.77811 0.43891 0.07100
H 	H 	0.18742 0.23139 0.55194 0.06400
H 	H 	0.82944 0.27810 0.43891 0.06600
H 	H 	0.01814 0.08437 0.93901 0.02100
H 	H 	0.97373 0.08170 0.06145 0.02100
H 	H 	0.51814 0.58437 0.93901 0.05100
H 	H 	0.47373 0.58170 0.06145 0.05400
H 	H 	0.65934 0.81461 0.06796 0.03400
H 	H 	0.34510 0.82240 0.93329 0.04400
H 	H 	0.15933 0.31461 0.06796 0.03000
H 	H 	0.13321 0.96106 0.57728 0.02900
H 	H 	0.84510 0.32240 0.93329 0.03000
H 	H 	0.66471 0.78800 0.93863 0.04100
H 	H 	0.33928 0.79711 0.06281 0.02900
H 	H 	0.16470 0.28800 0.93863 0.03400
H 	H 	0.83928 0.29711 0.06281 0.03700
H 	H 	0.83386 0.05428 0.92880 0.03800
H 	H 	0.16023 0.04491 0.06887 -0.02500
H 	H 	0.33386 0.55428 0.92880 0.03700
H 	H 	0.66022 0.54491 0.06887 0.04000
H 	H 	0.83178 0.07414 0.05489 0.04400
H 	H 	0.36157 0.49527 0.42987 0.02100
H 	H 	0.16215 0.06143 0.94304 0.07000
H 	H 	0.33178 0.57414 0.05489 0.04400
H 	H 	0.66215 0.56143 0.94303 0.04300
H 	H 	0.48158 0.96931 0.42986 0.07000
H 	H 	0.47553 0.96497 0.55623 0.08400
H 	H 	0.98158 0.46931 0.42986 0.04000
H 	H 	0.97553 0.46497 0.55623 0.05200
H 	H 	0.49398 0.36072 0.56373 0.02800
H 	H 	0.50425 0.36341 0.43324 0.02700
H 	H 	0.99398 0.86072 0.56373 0.03900
H 	H 	0.63321 0.46107 0.57728 0.02100
H 	H 	0.00424 0.86341 0.43324 0.02300
H 	H 	0.52908 0.87750 0.04989 0.13800
H 	H 	0.48377 0.87717 0.94514 0.14000
H 	H 	0.02908 0.37750 0.04989 0.12300
H 	H 	0.98377 0.37717 0.94514 0.15000
H 	H 	0.56820 0.82818 0.38706 0.02500
H 	H 	0.59054 0.84867 0.47928 0.02900
H 	H 	0.56909 0.59608 0.40772 0.04800
H 	H 	0.57837 0.62834 0.50173 0.04300
H 	H 	0.46603 0.76262 0.48857 0.06500
H 	H 	0.87948 0.94133 0.55231 0.05800
H 	H 	0.45514 0.59904 0.47998 0.05200
H 	H 	0.45548 0.69527 0.40144 0.04900
H 	H 	0.36814 0.64428 0.57392 0.02700
H 	H 	0.32491 0.71722 0.64860 0.03300
H 	H 	0.48368 0.73901 0.61413 0.04200
H 	H 	0.43861 0.80441 0.68928 0.00600
H 	H 	0.40692 0.59321 0.73144 0.03100
H 	H 	0.50091 0.61362 0.72319 0.04200
H 	H 	0.45393 0.52844 0.65601 0.04100
H 	H 	0.06820 0.32819 0.38707 0.01300
H 	H 	0.11654 0.91373 0.45286 0.05500
H 	H 	0.09054 0.34866 0.47929 0.01800
H 	H 	0.06908 0.09609 0.40770 0.03500
H 	H 	0.07840 0.12831 0.50172 0.03400
H 	H 	0.96605 0.26257 0.48864 0.06100
H 	H 	0.95515 0.09901 0.47998 0.03800
H 	H 	0.95547 0.19534 0.40149 0.04200
H 	H 	0.86816 0.14428 0.57393 0.01600
H 	H 	0.82488 0.21720 0.64858 0.02600
H 	H 	0.98367 0.23909 0.61420 0.04300
H 	H 	0.93854 0.30441 0.68934 0.00200
H 	H 	0.37948 0.44134 0.55231 0.04700
H 	H 	0.90688 0.09316 0.73144 0.01600
H 	H 	0.00087 0.11364 0.72324 0.02200
H 	H 	0.95394 0.02847 0.65602 0.02300
H 	H 	0.57522 0.31909 0.85052 0.15100
H 	H 	0.42286 0.31145 0.14785 0.15000
H 	H 	0.07522 0.81909 0.85052 0.15300
H 	H 	0.92286 0.81145 0.14785 0.15500
H 	H 	0.61654 0.41374 0.45286 0.04800
H 	H 	0.68742 0.73140 0.55194 0.07100
O 	O 	0.78754 0.04269 0.17047 -0.52200
O 	O 	0.45413 0.05110 0.66916 -0.49900
O 	O 	0.04587 0.55110 0.33084 -0.49000
O 	O 	0.95413 0.55110 0.66916 -0.48000
O 	O 	0.68134 0.95930 0.32551 -0.51500
O 	O 	0.31866 0.95930 0.67449 -0.51700
O 	O 	0.18134 0.45930 0.32551 -0.52600
O 	O 	0.81866 0.45930 0.67449 -0.52500
O 	O 	0.66788 0.16787 0.25007 -0.76200
O 	O 	0.33212 0.16787 0.74993 -0.76200
O 	O 	0.16788 0.66787 0.25007 -0.75500
O 	O 	0.21246 0.04269 0.82953 -0.51800
O 	O 	0.83212 0.66787 0.74993 -0.75500
O 	O 	0.76566 0.29216 0.17505 -0.53000
O 	O 	0.23434 0.29216 0.82495 -0.53000
O 	O 	0.26566 0.79216 0.17505 -0.53300
O 	O 	0.73434 0.79216 0.82495 -0.52200
O 	O 	0.67019 0.40898 0.16855 -0.48400
O 	O 	0.32981 0.40898 0.83145 -0.48400
O 	O 	0.17019 0.90898 0.16855 -0.48300
O 	O 	0.82981 0.90898 0.83145 -0.46500
O 	O 	0.55658 0.25145 0.17516 -0.51800
O 	O 	0.28754 0.54269 0.17047 -0.48500
O 	O 	0.44342 0.25145 0.82484 -0.51900
O 	O 	0.05658 0.75145 0.17516 -0.51400
O 	O 	0.94342 0.75145 0.82484 -0.51400
O 	O 	0.54592 0.04951 0.17032 -0.48600
O 	O 	0.45408 0.04951 0.82968 -0.48600
O 	O 	0.04592 0.54951 0.17032 -0.46900
O 	O 	0.95408 0.54951 0.82968 -0.46800
O 	O 	0.68139 0.95784 0.17671 -0.51600
O 	O 	0.31861 0.95784 0.82329 -0.51300
O 	O 	0.18139 0.45784 0.17671 -0.52900
O 	O 	0.71246 0.54269 0.82953 -0.48700
O 	O 	0.81861 0.45784 0.82329 -0.52900
O 	O 	0.78750 0.04428 0.33099 -0.54100
O 	O 	0.21250 0.04428 0.66901 -0.54200
O 	O 	0.28750 0.54428 0.33099 -0.49900
O 	O 	0.71250 0.54428 0.66901 -0.49900
O 	O 	0.76561 0.29363 0.32386 -0.48100
O 	O 	0.23439 0.29363 0.67614 -0.47900
O 	O 	0.26561 0.79363 0.32386 -0.47600
O 	O 	0.73439 0.79363 0.67614 -0.47200
O 	O 	0.67014 0.41057 0.32908 -0.43200
O 	O 	0.55654 0.25292 0.32397 -0.53700
O 	O 	0.32986 0.41057 0.67092 -0.43600
O 	O 	0.17014 0.91057 0.32908 -0.42200
O 	O 	0.82986 0.91057 0.67092 -0.42100
O 	O 	0.49568 0.93679 0.07148 -0.23500
O 	O 	0.51558 0.93976 0.92445 -0.23600
O 	O 	0.99568 0.43679 0.07148 -0.24300
O 	O 	0.01558 0.43976 0.92445 -0.28500
O 	O 	0.66512 0.75871 0.41180 -0.22200
O 	O 	0.36458 0.83301 0.56872 -0.22300
O 	O 	0.16512 0.25871 0.41180 -0.23000
O 	O 	0.44346 0.25292 0.67603 -0.53600
O 	O 	0.86458 0.33300 0.56872 -0.22700
O 	O 	0.55054 0.39707 0.86149 -0.29400
O 	O 	0.44614 0.39090 0.13781 -0.29400
O 	O 	0.05054 0.89707 0.86149 -0.28000
O 	O 	0.94614 0.89090 0.13781 -0.27600
O 	O 	0.05654 0.75292 0.32397 -0.53300
O 	O 	0.94346 0.75292 0.67603 -0.52900
O 	O 	0.54587 0.05110 0.33084 -0.50500
