data_crystal

_cell_length_a 21.41063
_cell_length_b 7.24734
_cell_length_c 14.77231
_cell_angle_alpha 90.49689
_cell_angle_beta  74.40228
_cell_angle_gamma 89.87444

_symmetry_space_group_name_	'P 1'
_symmetry_space_group_name_H-M	'P 1'

loop_
_symmetry_equiv_pos_as_xyz
  x,y,z

loop_
_atom_site_label
_atom_site_type_symbol
_atom_site_fract_x
_atom_site_fract_y
_atom_site_fract_z
_atom_site_charge
O 	O 	0.46416 0.50667 0.13007 -0.46600
O 	O 	0.53584 0.00667 0.86993 -0.46800
O 	O 	0.58971 0.17908 0.00671 -0.48200
O 	O 	0.41029 0.67908 0.99329 -0.48500
C 	C 	0.61633 0.34400 0.00205 0.33500
C 	C 	0.38368 0.84461 0.99803 0.32500
O 	O 	0.46794 0.17722 0.13801 -0.47500
O 	O 	0.53206 0.67722 0.86199 -0.47300
O 	O 	0.41320 0.00281 0.00217 -0.47400
O 	O 	0.58680 0.50281 0.99783 -0.48500
C 	C 	0.45626 0.34651 0.17433 0.33800
C 	C 	0.54378 0.84452 0.82558 0.33400
O 	O 	0.48218 0.33785 0.95528 -0.61400
O 	O 	0.51782 0.83785 0.04472 -0.60800
V 	V 	0.50331 0.06460 0.00830 1.79200
V 	V 	0.49669 0.56460 0.99170 1.79000
C 	C 	0.57151 0.84769 0.72389 -0.09000
C 	C 	0.42836 0.35936 0.27581 -0.09100
C 	C 	0.92846 0.87006 0.27627 -0.09300
C 	C 	0.07166 0.35903 0.72401 -0.09500
C 	C 	0.56031 0.79688 0.56749 -0.07300
C 	C 	0.43900 0.43677 0.43000 -0.07300
C 	C 	0.53259 0.81030 0.66395 0.02600
C 	C 	0.46692 0.41112 0.33418 0.02700
C 	C 	0.63835 0.87099 0.68752 0.00700
C 	C 	0.36172 0.33375 0.31298 0.00800
C 	C 	0.66819 0.85352 0.58984 -0.02200
C 	C 	0.33170 0.36245 0.40991 -0.02200
C 	C 	0.62755 0.81634 0.53013 0.04200
C 	C 	0.37195 0.41439 0.46811 0.04200
C 	C 	0.73676 0.86846 0.54983 0.00600
C 	C 	0.26333 0.34396 0.45054 0.00600
C 	C 	0.76333 0.84625 0.45045 0.00700
C 	C 	0.23654 0.37756 0.54905 0.00700
C 	C 	0.72049 0.80988 0.39447 -0.03200
C 	C 	0.27897 0.42871 0.60355 -0.03200
C 	C 	0.65415 0.79586 0.43368 -0.05600
C 	C 	0.34512 0.44613 0.56373 -0.05600
C 	C 	0.77963 0.90399 0.60586 -0.03200
C 	C 	0.22085 0.29369 0.39596 -0.03100
C 	C 	0.84595 0.91828 0.56663 -0.05700
C 	C 	0.15471 0.27601 0.43579 -0.05700
C 	C 	0.87252 0.89895 0.47013 0.04300
C 	C 	0.12795 0.30655 0.53152 0.04400
C 	C 	0.83187 0.86198 0.41039 -0.02300
C 	C 	0.16821 0.35826 0.58975 -0.02300
C 	C 	0.93971 0.91934 0.43274 -0.07500
C 	C 	0.06094 0.28325 0.56969 -0.07600
C 	C 	0.96739 0.90710 0.33623 0.03000
C 	C 	0.03308 0.30767 0.66560 0.03300
C 	C 	0.86166 0.84581 0.31265 0.01000
C 	C 	0.13825 0.38560 0.68679 0.01000
H 	H 	0.83453 0.82040 0.26213 0.03100
H 	H 	0.16508 0.42281 0.73625 0.03000
H 	H 	0.01906 0.92816 0.30816 0.02500
H 	H 	0.98156 0.28519 0.69444 0.02400
H 	H 	0.87680 0.94655 0.61251 0.04200
H 	H 	0.12418 0.23645 0.39105 0.04300
H 	H 	0.52926 0.76783 0.52205 0.04700
H 	H 	0.46975 0.47693 0.47427 0.04700
H 	H 	0.48089 0.78977 0.69203 0.02600
H 	H 	0.51848 0.43309 0.30537 0.02700
H 	H 	0.66546 0.89686 0.73802 0.03000
H 	H 	0.33492 0.29605 0.26356 0.03100
H 	H 	0.73642 0.79038 0.31948 0.03500
H 	H 	0.26283 0.45744 0.67778 0.03500
H 	H 	0.76374 0.92241 0.68090 0.03400
H 	H 	0.23693 0.26610 0.32162 0.03500
H 	H 	0.97077 0.94820 0.47820 0.04700
H 	H 	0.03019 0.24331 0.52539 0.04900
C 	C 	0.22886 0.77063 0.90944 -0.06400
C 	C 	0.78757 0.15986 0.00559 -0.03900
H 	H 	0.21150 0.62765 0.90321 0.04800
H 	H 	0.81638 0.07721 0.94467 0.04300
H 	H 	0.22323 0.84815 0.84740 0.04300
H 	H 	0.79382 0.09457 0.07056 0.04600
C 	C 	0.30172 0.76443 0.90811 -0.05300
C 	C 	0.71528 0.15321 0.00684 -0.05200
H 	H 	0.31872 0.61847 0.90123 0.04600
H 	H 	0.70999 0.06735 0.94649 0.04200
H 	H 	0.17913 0.60927 0.08351 0.05100
H 	H 	0.83117 0.37016 0.84550 0.04100
H 	H 	0.28626 0.59995 0.08190 0.04600
H 	H 	0.72352 0.36043 0.84738 0.04300
C 	C 	0.19720 0.75263 0.08583 -0.06100
C 	C 	0.80180 0.44688 0.90818 -0.05400
C 	C 	0.21476 0.06119 0.00699 -0.06000
C 	C 	0.77006 0.47118 0.08466 -0.04800
C 	C 	0.18740 0.86352 0.00121 -0.02900
C 	C 	0.81266 0.36199 0.99899 -0.04900
H 	H 	0.18677 0.13209 0.07258 0.04800
H 	H 	0.78597 0.61760 0.08207 0.04700
H 	H 	0.20936 0.14494 0.94669 0.05000
H 	H 	0.77628 0.41228 0.15103 0.04100
C 	C 	0.31241 0.85264 0.99899 -0.05000
C 	C 	0.68765 0.35052 0.00120 -0.03500
C 	C 	0.27003 0.74638 0.08459 -0.04900
C 	C 	0.72896 0.44027 0.90948 -0.06400
C 	C 	0.28706 0.05482 0.00577 -0.04700
C 	C 	0.69724 0.46454 0.08590 -0.05900
H 	H 	0.31576 0.13538 0.94494 0.04900
H 	H 	0.66863 0.40251 0.15284 0.04200
H 	H 	0.29320 0.12228 0.07082 0.04600
H 	H 	0.67886 0.60773 0.08367 0.05200
H 	H 	0.16845 0.81701 0.15279 0.04300
H 	H 	0.81848 0.59269 0.90142 0.04500
H 	H 	0.27611 0.80776 0.15100 0.04100
H 	H 	0.71129 0.58293 0.90334 0.04700
O 	O 	0.91321 0.20855 0.00211 -0.45900
O 	O 	0.08679 0.70855 0.99789 -0.47100
O 	O 	0.03206 0.53996 0.86198 -0.47500
O 	O 	0.96794 0.03996 0.13802 -0.47000
C 	C 	0.04378 0.37160 0.82550 0.34600
C 	C 	0.95618 0.87354 0.17459 0.34400
O 	O 	0.91029 0.53802 0.99328 -0.47800
O 	O 	0.08971 0.03802 0.00672 -0.47800
O 	O 	0.96416 0.71234 0.13009 -0.46500
O 	O 	0.03584 0.21234 0.86991 -0.46800
C 	C 	0.88399 0.36989 0.99800 0.30000
C 	C 	0.11602 0.87004 0.00210 0.31000
O 	O 	0.01782 0.37921 0.04469 -0.61300
O 	O 	0.98218 0.87921 0.95531 -0.62100
V 	V 	0.99669 0.65250 0.99171 1.78700
V 	V 	0.00331 0.15250 0.00829 1.79000
H 	H 	0.62333 0.76707 0.38784 0.04300
H 	H 	0.37563 0.48625 0.60842 0.04300
H 	H 	0.33092 0.83901 0.84546 0.04000
H 	H 	0.68739 0.08463 0.07237 0.04700
