data_crystal

_cell_length_a 19.93233
_cell_length_b 17.42798
_cell_length_c 15.50978
_cell_angle_alpha 90.17723
_cell_angle_beta  52.47360
_cell_angle_gamma 90.46062

_symmetry_space_group_name_	'P 1'
_symmetry_space_group_name_H-M	'P 1'

loop_
_symmetry_equiv_pos_as_xyz
  x,y,z

loop_
_atom_site_label
_atom_site_type_symbol
_atom_site_fract_x
_atom_site_fract_y
_atom_site_fract_z
_atom_site_charge
C 	C 	0.35672 0.18795 0.02144 -0.09500
C 	C 	0.67661 0.73419 0.45011 0.06200
C 	C 	0.13228 0.96423 0.50973 -0.02300
C 	C 	0.61698 0.55893 0.68065 -0.04000
C 	C 	0.40534 0.44047 0.34540 -0.03100
C 	C 	0.25943 0.60324 0.36640 -0.02600
C 	C 	0.70767 0.39379 0.48442 -0.03800
C 	C 	0.37005 0.16415 0.60035 -0.03900
C 	C 	0.58283 0.78517 0.42501 -0.03900
C 	C 	0.74310 0.18519 0.30882 -0.02800
C 	C 	0.28839 0.79057 0.65216 -0.03800
C 	C 	0.81278 0.64505 0.60344 -0.03800
C 	C 	0.79478 0.19223 0.41006 0.05200
C 	C 	0.21242 0.37944 0.37426 -0.03300
C 	C 	0.13573 0.79205 0.34396 -0.02700
C 	C 	0.84461 0.24319 0.67433 -0.04200
C 	C 	0.21590 0.80207 0.57914 0.06800
C 	C 	0.72812 0.70995 0.57255 0.05800
C 	C 	0.27747 0.29768 0.42006 0.06600
C 	C 	0.18386 0.75715 0.44191 0.05200
C 	C 	0.80667 0.25315 0.56034 0.06500
C 	C 	0.27198 0.70191 0.96697 0.10000
C 	C 	0.72755 0.29773 0.03456 0.13200
C 	C 	0.76851 0.72473 0.96480 0.15700
C 	C 	0.62784 0.80514 0.99835 0.24000
C 	C 	0.20306 0.25831 0.06574 0.00000
C 	C 	0.74549 0.22205 0.01572 0.06800
C 	C 	0.25437 0.77766 0.98547 0.16500
C 	C 	0.26615 0.22478 0.97199 0.18600
C 	C 	0.70787 0.75962 0.05898 0.06800
C 	C 	0.34893 0.82893 0.22166 0.03600
C 	C 	0.64653 0.17621 0.77790 0.05600
C 	C 	0.60900 0.80341 0.78724 0.05000
C 	C 	0.38944 0.19609 0.21245 0.04200
C 	C 	0.89918 0.30121 0.20740 0.03100
C 	C 	0.64514 0.18786 0.97713 0.24100
C 	C 	0.10542 0.69772 0.78860 0.04400
C 	C 	0.14963 0.32814 0.77957 0.05300
C 	C 	0.84898 0.67071 0.22211 0.04100
C 	C 	0.34508 0.89679 0.92561 0.19800
C 	C 	0.65435 0.10314 0.07533 0.23400
C 	C 	0.63809 0.88945 0.09676 0.24800
C 	C 	0.35057 0.10427 0.91803 0.20100
C 	C 	0.83260 0.40693 0.94714 0.29800
C 	C 	0.16690 0.59283 0.05367 0.13400
C 	C 	0.13688 0.38942 0.09843 0.19600
C 	C 	0.35597 0.81154 0.02156 -0.09500
C 	C 	0.85371 0.60471 0.91316 0.20200
C 	C 	0.40192 0.10855 0.30623 0.20300
C 	C 	0.59422 0.89063 0.69575 0.20800
C 	C 	0.64411 0.07991 0.68466 0.21200
C 	C 	0.35622 0.92045 0.31610 0.20000
C 	C 	0.85770 0.58083 0.31686 0.19900
C 	C 	0.14058 0.41705 0.68303 0.21000
C 	C 	0.09465 0.60821 0.69517 0.21500
C 	C 	0.90907 0.38973 0.30186 0.19800
C 	C 	0.31787 0.17130 0.97535 -0.02600
C 	C 	0.86282 0.69102 0.01063 -0.08500
C 	C 	0.66012 0.81659 0.05330 -0.22000
C 	C 	0.68712 0.17094 0.01855 -0.22400
C 	C 	0.31311 0.82868 0.98167 -0.01300
C 	C 	0.82408 0.67380 0.96449 -0.02800
C 	C 	0.15747 0.31603 0.05731 -0.05300
C 	C 	0.20968 0.65123 0.97800 -0.03400
C 	C 	0.78967 0.34897 0.02358 -0.19600
C 	C 	0.30596 0.86320 0.32217 -0.06000
C 	C 	0.69044 0.14256 0.67697 -0.06700
C 	C 	0.62079 0.81786 0.69166 -0.05600
C 	C 	0.12604 0.30451 0.00155 -0.05800
C 	C 	0.37557 0.18116 0.30873 -0.05400
C 	C 	0.89033 0.31424 0.30050 -0.05600
C 	C 	0.11712 0.68349 0.69309 -0.06600
C 	C 	0.18906 0.35831 0.67701 -0.05000
C 	C 	0.80699 0.63771 0.32420 -0.05100
C 	C 	0.26646 0.19893 0.51453 0.06100
C 	C 	0.71489 0.79618 0.48005 0.05900
C 	C 	0.82754 0.15134 0.46687 0.06000
C 	C 	0.17799 0.85207 0.53744 0.07500
C 	C 	0.68937 0.64889 0.54258 0.06700
C 	C 	0.16184 0.67185 0.94578 0.12700
C 	C 	0.31352 0.34663 0.46657 0.06400
C 	C 	0.22269 0.70591 0.48322 0.05100
C 	C 	0.77550 0.29420 0.50327 0.06900
C 	C 	0.61918 0.70433 0.56867 0.05700
C 	C 	0.37249 0.28096 0.44775 0.06100
C 	C 	0.28251 0.77140 0.46404 0.06600
C 	C 	0.72010 0.22483 0.52099 0.05500
C 	C 	0.20793 0.26371 0.53229 0.06100
C 	C 	0.78395 0.74171 0.45654 0.06100
C 	C 	0.88202 0.22183 0.44982 0.06100
C 	C 	0.83790 0.32867 0.05521 0.02900
C 	C 	0.11681 0.78611 0.55955 0.05500
C 	C 	0.65764 0.76615 0.59968 -0.01300
C 	C 	0.33667 0.23190 0.40056 -0.01600
C 	C 	0.24505 0.82222 0.42170 -0.01900
C 	C 	0.75183 0.18379 0.57772 -0.01800
C 	C 	0.24334 0.31358 0.57999 -0.01200
C 	C 	0.74686 0.67932 0.42447 -0.01000
C 	C 	0.85105 0.26193 0.39154 -0.01800
C 	C 	0.15533 0.73620 0.60113 -0.01600
C 	C 	0.47707 0.73334 0.69607 -0.03700
C 	C 	0.30272 0.24783 0.56096 0.06300
C 	C 	0.51584 0.27075 0.30529 -0.03300
C 	C 	0.41370 0.71269 0.34434 -0.02800
C 	C 	0.58947 0.17857 0.57007 -0.03000
C 	C 	0.06229 0.24981 0.67312 -0.02400
C 	C 	0.88832 0.81678 0.43784 -0.03500
C 	C 	0.00759 0.28032 0.39175 -0.05900
C 	C 	0.98683 0.73687 0.62000 -0.02300
C 	C 	0.18431 0.10190 0.64017 -0.04000
C 	C 	0.77453 0.88495 0.34045 -0.03700
C 	C 	0.91719 0.05727 0.34481 -0.02600
H 	H 	0.35422 0.24095 0.05971 0.02300
H 	H 	0.65960 0.23135 0.79619 0.02400
H 	H 	0.07359 0.81151 0.41714 0.04200
H 	H 	0.12566 0.77039 0.28527 0.04000
H 	H 	0.91450 0.24327 0.61386 0.05800
H 	H 	0.82008 0.18325 0.69103 0.05500
H 	H 	0.82892 0.26653 0.75125 0.06400
H 	H 	0.34808 0.61656 0.92638 0.16700
H 	H 	0.65109 0.38262 0.07468 0.14100
H 	H 	0.82718 0.71115 0.80966 0.16000
H 	H 	0.19069 0.18420 0.16888 0.12900
H 	H 	0.82460 0.13790 0.96968 0.17000
H 	H 	0.61190 0.74841 0.81679 0.01900
H 	H 	0.17522 0.86198 0.03232 0.14000
H 	H 	0.34368 0.22801 0.81349 0.16000
H 	H 	0.69883 0.68702 0.16116 0.13500
H 	H 	0.38825 0.25105 0.18153 0.00100
H 	H 	0.90211 0.24602 0.17351 -0.00400
H 	H 	0.10573 0.75331 0.81941 0.02200
H 	H 	0.16693 0.27720 0.80091 0.03000
H 	H 	0.83040 0.72196 0.20317 0.01300
H 	H 	0.39175 0.94115 0.78809 0.12300
H 	H 	0.61056 0.05003 0.20689 0.13300
H 	H 	0.67851 0.88484 0.18208 0.17400
H 	H 	0.62341 0.75172 0.96626 -0.02400
H 	H 	0.40729 0.06320 0.77621 0.10700
H 	H 	0.87746 0.42984 0.80118 0.13100
H 	H 	0.12420 0.55607 0.19424 0.13200
H 	H 	0.17406 0.38408 0.18706 0.16600
H 	H 	0.90585 0.55120 0.77982 0.11800
H 	H 	0.47027 0.04612 0.32499 0.09500
H 	H 	0.53291 0.96155 0.67343 0.10200
H 	H 	0.71367 0.04834 0.53377 0.18100
H 	H 	0.40511 0.93759 0.38791 0.14400
H 	H 	0.90956 0.56044 0.38360 0.13500
H 	H 	0.64702 0.24141 0.94133 -0.01200
H 	H 	0.08399 0.44338 0.62379 0.13500
H 	H 	0.08654 0.61355 0.57739 0.17000
H 	H 	0.97884 0.45558 0.31551 0.10000
H 	H 	0.48825 0.79013 0.65718 0.05300
H 	H 	0.47845 0.73791 0.76635 0.05700
H 	H 	0.41261 0.71443 0.72735 0.05300
H 	H 	0.50188 0.29376 0.25096 0.04400
H 	H 	0.52112 0.20740 0.29953 0.05300
H 	H 	0.57839 0.29385 0.27641 0.05100
H 	H 	0.48230 0.72231 0.30179 0.04200
H 	H 	0.35577 0.75750 0.05514 0.02300
H 	H 	0.40400 0.71198 0.28118 0.03200
H 	H 	0.39701 0.65663 0.38686 0.05200
H 	H 	0.54294 0.16143 0.65648 0.04000
H 	H 	0.62843 0.12882 0.52104 0.04900
H 	H 	0.55301 0.19572 0.54082 0.04400
H 	H 	0.03342 0.30725 0.70197 0.03800
H 	H 	0.08342 0.22892 0.72034 0.03800
H 	H 	0.01170 0.21010 0.69019 0.04400
H 	H 	0.86667 0.80221 0.52087 0.05600
H 	H 	0.85955 0.87150 0.43935 0.05700
H 	H 	0.86429 0.74610 0.04167 0.01800
H 	H 	0.95769 0.82631 0.38663 0.04200
H 	H 	0.96912 0.32376 0.45653 0.07500
H 	H 	0.02811 0.30179 0.31182 0.06900
H 	H 	0.06526 0.27091 0.38577 0.06300
H 	H 	0.97236 0.70021 0.68779 0.04800
H 	H 	0.02056 0.70366 0.54321 0.03900
H 	H 	0.92655 0.75518 0.63750 0.04900
H 	H 	0.12164 0.10228 0.65729 0.05500
H 	H 	0.18405 0.14030 0.69778 0.05300
H 	H 	0.19484 0.04287 0.65592 0.07300
H 	H 	0.11979 0.25023 0.97290 0.07700
H 	H 	0.78904 0.94691 0.32183 0.04900
H 	H 	0.73926 0.86689 0.30956 0.05300
H 	H 	0.83576 0.85424 0.29636 0.04500
H 	H 	0.96444 0.10407 0.29789 0.05000
H 	H 	0.88625 0.04219 0.30706 0.04500
H 	H 	0.95222 0.00594 0.33911 0.03900
H 	H 	0.08808 0.92874 0.50497 0.05000
H 	H 	0.18961 0.97887 0.42689 0.05100
H 	H 	0.09950 0.01874 0.54994 0.04900
H 	H 	0.55292 0.56132 0.70173 0.06300
H 	H 	0.17375 0.71866 0.89268 0.00900
H 	H 	0.62221 0.60055 0.73089 0.05800
H 	H 	0.62465 0.50070 0.70210 0.06400
H 	H 	0.40447 0.41081 0.28241 0.03900
H 	H 	0.46234 0.42482 0.33824 0.05100
H 	H 	0.41034 0.50296 0.32931 0.04100
H 	H 	0.29681 0.64480 0.29821 0.03900
H 	H 	0.19763 0.59063 0.38357 0.05100
H 	H 	0.29589 0.54946 0.33857 0.04200
H 	H 	0.63848 0.39386 0.55069 0.06500
H 	H 	0.72162 0.35768 0.41621 0.04900
H 	H 	0.82619 0.28242 0.10858 0.00300
H 	H 	0.72745 0.45274 0.45161 0.07000
H 	H 	0.43227 0.17763 0.52206 0.06200
H 	H 	0.34287 0.11134 0.59236 0.06800
H 	H 	0.38210 0.15164 0.65968 0.05500
H 	H 	0.58216 0.83709 0.46745 0.06100
H 	H 	0.52590 0.74893 0.48075 0.05600
H 	H 	0.57960 0.80534 0.35992 0.05800
H 	H 	0.73100 0.24715 0.32907 0.04200
H 	H 	0.68263 0.15325 0.35032 0.04600
H 	H 	0.77435 0.17869 0.22091 0.04200
H 	H 	0.33197 0.77525 0.20520 0.00600
H 	H 	0.35271 0.81260 0.58651 0.06000
H 	H 	0.28434 0.72761 0.64328 0.05300
H 	H 	0.27824 0.79997 0.73009 0.05800
H 	H 	0.87054 0.65879 0.52044 0.05500
H 	H 	0.78772 0.58737 0.60607 0.07300
H 	H 	0.83167 0.64291 0.65744 0.05400
H 	H 	0.23327 0.43039 0.39508 0.06400
H 	H 	0.14710 0.36200 0.44321 0.06000
H 	H 	0.21122 0.39655 0.30653 0.04200
H 	H 	0.18009 0.84148 0.30494 0.03400
N 	N 	0.40868 0.13081 0.99578 -0.18800
N 	N 	0.57859 0.13279 0.84638 -0.24000
N 	N 	0.57859 0.86721 0.84638 -0.23500
N 	N 	0.42141 0.13279 0.15362 -0.26300
N 	N 	0.92141 0.36721 0.15362 -0.25900
N 	N 	0.07859 0.63279 0.84638 -0.23800
N 	N 	0.07859 0.36721 0.84638 -0.23800
N 	N 	0.92141 0.63279 0.15362 -0.26000
N 	N 	0.40384 0.92191 0.93576 -0.26900
N 	N 	0.59616 0.07809 0.06424 -0.28700
N 	N 	0.59616 0.92191 0.06424 -0.27800
N 	N 	0.59132 0.86919 0.00422 -0.32500
N 	N 	0.40384 0.07809 0.93576 -0.26800
N 	N 	0.90384 0.42191 0.93576 -0.28300
N 	N 	0.09616 0.57809 0.06424 -0.27300
N 	N 	0.09616 0.42191 0.06424 -0.27400
N 	N 	0.90384 0.57809 0.93576 -0.26600
N 	N 	0.42625 0.07610 0.21365 -0.28200
N 	N 	0.57375 0.92390 0.78635 -0.26800
N 	N 	0.57375 0.07610 0.78635 -0.27700
N 	N 	0.42625 0.92390 0.21365 -0.28200
N 	N 	0.92625 0.57610 0.21365 -0.28000
N 	N 	0.59132 0.13081 0.00422 -0.33000
N 	N 	0.07375 0.42390 0.78635 -0.27900
N 	N 	0.07375 0.57610 0.78635 -0.27200
N 	N 	0.92625 0.42390 0.21365 -0.27900
N 	N 	0.40868 0.86919 0.99578 -0.19400
N 	N 	0.90868 0.63081 0.99578 -0.19400
N 	N 	0.09132 0.36919 0.00422 -0.25800
N 	N 	0.09132 0.63081 0.00422 -0.31000
N 	N 	0.90868 0.36919 0.99578 -0.20900
N 	N 	0.42141 0.86721 0.15362 -0.26500
Ni	Ni	0.50000 0.13157 -0.00000 0.98500
Ni	Ni	0.50000 0.86843 -0.00000 0.98600
Ni	Ni	1.00000 0.63157 -0.00000 0.99200
Ni	Ni	-0.00000 0.36843 -0.00000 0.98200
Ni	Ni	0.48890 1.00000 0.86231 1.02500
Ni	Ni	0.51110 -0.00000 0.13769 1.01100
Ni	Ni	0.98890 0.50000 0.86231 1.02800
Ni	Ni	0.01110 0.50000 0.13769 1.01000
O 	O 	0.33624 0.92021 0.84882 -0.28600
O 	O 	0.56594 0.91417 0.63844 -0.28500
O 	O 	0.66077 0.03240 0.60320 -0.32600
O 	O 	0.34945 0.94700 0.40435 -0.27900
O 	O 	0.85240 0.55348 0.40336 -0.28800
O 	O 	0.14348 0.44182 0.59725 -0.28800
O 	O 	0.07090 0.57737 0.63577 -0.34800
O 	O 	0.93397 0.41687 0.36149 -0.28200
O 	O 	0.53516 0.67829 0.62168 -0.17100
O 	O 	0.45554 0.29353 0.41387 -0.17100
O 	O 	0.36926 0.77242 0.41929 -0.17600
O 	O 	0.66248 0.07928 0.15265 -0.31900
O 	O 	0.63595 0.24265 0.56291 -0.17400
O 	O 	0.12649 0.25173 0.56002 -0.17400
O 	O 	0.87187 0.75684 0.39165 -0.17800
O 	O 	0.96497 0.20981 0.41549 -0.16000
O 	O 	0.03090 0.80304 0.61224 -0.17200
O 	O 	0.24799 0.11938 0.52976 -0.15300
O 	O 	0.72518 0.87513 0.45398 -0.15600
O 	O 	0.85598 0.07526 0.45553 -0.17300
O 	O 	0.15442 0.92896 0.57086 -0.15100
O 	O 	0.67952 0.57003 0.56803 -0.15800
O 	O 	0.64316 0.91938 0.17459 -0.35000
O 	O 	0.33144 0.42617 0.45146 -0.15700
O 	O 	0.24725 0.62796 0.46157 -0.16900
O 	O 	0.75059 0.37200 0.52672 -0.14500
O 	O 	0.31339 0.22608 0.63957 -0.16200
O 	O 	0.65672 0.74146 0.37733 -0.16900
O 	O 	0.79510 0.15107 0.33094 -0.18600
O 	O 	0.22711 0.83240 0.65435 -0.15400
O 	O 	0.75052 0.70167 0.64278 -0.17100
O 	O 	0.26937 0.31853 0.33880 -0.17700
O 	O 	0.16878 0.73194 0.36824 -0.18700
O 	O 	0.35012 0.08334 0.83318 -0.29300
O 	O 	0.80808 0.29092 0.63997 -0.15800
O 	O 	0.34724 0.67255 0.93876 -0.26300
O 	O 	0.65226 0.32660 0.06228 -0.31000
O 	O 	0.78258 0.74416 0.86834 -0.27000
O 	O 	0.17847 0.23902 0.16791 -0.26200
O 	O 	0.82198 0.19356 0.98492 -0.21800
O 	O 	0.17769 0.80632 0.01713 -0.35000
O 	O 	0.28738 0.24864 0.87278 -0.26300
O 	O 	0.68704 0.74191 0.15970 -0.27500
O 	O 	0.82036 0.42370 0.87133 -0.29700
O 	O 	0.17989 0.57293 0.12794 -0.29800
O 	O 	0.14140 0.41989 0.17644 -0.33800
O 	O 	0.85268 0.57977 0.83006 -0.29600
O 	O 	0.42669 0.08574 0.36751 -0.28800
