data_crystal

_cell_length_a 10.65411
_cell_length_b 10.63666
_cell_length_c 16.87917
_cell_angle_alpha 98.97151
_cell_angle_beta  98.95563
_cell_angle_gamma 61.62430

_symmetry_space_group_name_	'P 1'
_symmetry_space_group_name_H-M	'P 1'

loop_
_symmetry_equiv_pos_as_xyz
  x,y,z

loop_
_atom_site_label
_atom_site_type_symbol
_atom_site_fract_x
_atom_site_fract_y
_atom_site_fract_z
_atom_site_charge
C 	C 	0.35474 0.77521 0.39858 0.43300
C 	C 	0.76252 0.29154 0.24804 0.02400
C 	C 	0.83159 0.34235 0.32417 -0.16700
C 	C 	0.98199 0.23622 0.30230 0.17500
C 	C 	0.98165 0.35300 0.25764 0.13600
C 	C 	0.82994 0.45975 0.28054 -0.00400
C 	C 	0.76251 0.40768 0.20366 -0.00300
C 	C 	0.91365 0.30161 0.18167 -0.07700
C 	C 	0.47572 0.77241 0.22020 0.04100
C 	C 	0.41563 0.68512 0.25266 -0.02100
C 	C 	0.34860 0.80930 0.31816 -0.08000
C 	C 	0.37116 0.34702 0.35860 0.41600
C 	C 	0.41053 0.89456 0.28783 -0.04900
C 	C 	0.26994 0.96417 0.23322 0.23000
C 	C 	0.20908 0.87757 0.26467 -0.06200
C 	C 	0.27452 0.75467 0.19830 0.03200
C 	C 	0.33452 0.84093 0.16707 -0.15100
C 	C 	0.46258 0.26279 0.77703 0.01500
C 	C 	0.40285 0.40429 0.73778 -0.01200
C 	C 	0.34096 0.33792 0.66459 -0.11600
C 	C 	0.40139 0.19731 0.70276 -0.03200
C 	C 	0.25891 0.25947 0.73966 0.07500
C 	C 	0.77705 0.37674 0.40191 0.47300
C 	C 	0.19790 0.40032 0.70046 -0.03400
C 	C 	0.25946 0.46509 0.77570 0.01200
C 	C 	0.31994 0.32359 0.81382 -0.17000
C 	C 	0.76496 0.36973 0.71614 0.00300
C 	C 	0.80836 0.33202 0.78311 -0.07900
C 	C 	0.35915 0.76206 0.71497 0.00400
C 	C 	0.32790 0.80708 0.78291 -0.07700
C 	C 	0.95838 0.28492 0.10257 0.35500
C 	C 	0.32018 0.30076 0.11974 0.41000
C 	C 	0.29831 0.88503 0.08631 0.43200
C 	C 	0.37983 0.71527 0.63159 0.29000
C 	C 	0.87542 0.30358 0.86315 0.40200
C 	C 	0.30863 0.29471 0.89240 0.43900
C 	C 	0.28355 0.87754 0.86059 0.40200
C 	C 	0.36813 0.34661 0.58575 0.41900
C 	C 	0.71723 0.41130 0.63564 0.29500
C 	C 	0.34623 0.33770 0.27470 -0.10100
C 	C 	0.33423 0.32834 0.20337 -0.08200
C 	C 	0.91430 0.18432 0.22440 -0.05100
Cr	Cr	0.60834 0.61104 0.52043 1.54400
Cr	Cr	0.28765 0.60112 0.48935 1.53500
Cr	Cr	0.60404 0.28787 0.49028 1.53500
Cr	Cr	0.05402 0.05270 0.97085 1.35000
Cr	Cr	0.05923 0.37512 0.99339 1.41200
Cr	Cr	0.37495 0.06120 0.99234 1.41100
H 	H 	0.67193 0.26669 0.24622 0.03300
H 	H 	0.21585 0.07863 0.22148 -0.15200
H 	H 	0.10276 0.91721 0.28681 0.06100
H 	H 	0.22075 0.69590 0.16020 0.03900
H 	H 	0.46330 0.46387 0.73452 0.02500
H 	H 	0.57058 0.20883 0.80983 0.00300
H 	H 	0.45679 0.08804 0.67136 0.00400
H 	H 	0.09045 0.45364 0.66700 0.00500
H 	H 	0.20363 0.57388 0.80749 0.00200
H 	H 	0.94475 0.07366 0.19614 0.05400
H 	H 	0.06901 0.16906 0.34582 -0.15100
H 	H 	0.07045 0.37990 0.25955 -0.08900
H 	H 	0.79485 0.57359 0.30445 0.07200
H 	H 	0.67467 0.47482 0.16053 0.06300
H 	H 	0.47500 0.56994 0.26360 0.04200
H 	H 	0.58361 0.73064 0.19962 0.05700
H 	H 	0.46387 0.95312 0.32657 0.10500
O 	O 	0.75122 0.49923 0.43517 -0.47600
O 	O 	0.29788 0.46908 0.56005 -0.55600
O 	O 	0.48972 0.25459 0.56481 -0.51700
O 	O 	0.72522 0.30423 0.58508 -0.47800
O 	O 	0.50001 0.50001 0.50002 -0.75500
O 	O 	0.17183 0.91388 0.05751 -0.37000
O 	O 	0.94069 0.18605 0.05473 -0.35700
O 	O 	0.92047 0.40572 0.07501 -0.29700
O 	O 	0.19669 0.37046 0.08412 -0.47100
O 	O 	0.41299 0.18075 0.09161 -0.43700
O 	O 	0.36662 0.94313 0.06576 -0.34900
O 	O 	0.47722 0.72760 0.43687 -0.51300
O 	O 	0.16051 0.90633 0.87921 -0.47900
O 	O 	0.93019 0.17905 0.88945 -0.50600
O 	O 	0.90914 0.39817 0.89671 -0.43900
O 	O 	0.18619 0.36346 0.91883 -0.61700
O 	O 	0.40167 0.17320 0.91331 -0.57900
O 	O 	0.35612 0.93613 0.90047 -0.46800
O 	O 	0.16274 0.16301 0.98553 -0.94800
O 	O 	0.25865 0.74512 0.41147 -0.48700
O 	O 	0.29707 0.46724 0.39596 -0.54800
O 	O 	0.48883 0.25261 0.38779 -0.51700
O 	O 	0.72440 0.30239 0.42098 -0.54300
O 	O 	0.75210 0.50121 0.61219 -0.39500
O 	O 	0.47804 0.72944 0.60097 -0.44800
O 	O 	0.25953 0.74711 0.58849 -0.42900
C 	C 	0.17716 0.17569 0.73811 -0.18300
H 	H 	0.14107 0.15066 0.67510 0.01500
H 	H 	0.24826 0.07557 0.76592 0.02000
H 	H 	0.08415 0.23998 0.77294 0.02200
