data_crystal

_cell_length_a 6.94322
_cell_length_b 13.64197
_cell_length_c 20.42139
_cell_angle_alpha 102.09872
_cell_angle_beta  89.63950
_cell_angle_gamma 90.66385

_symmetry_space_group_name_	'P 1'
_symmetry_space_group_name_H-M	'P 1'

loop_
_symmetry_equiv_pos_as_xyz
  x,y,z

loop_
_atom_site_label
_atom_site_type_symbol
_atom_site_fract_x
_atom_site_fract_y
_atom_site_fract_z
_atom_site_charge
O 	O 	0.50686 0.59939 0.44924 -0.47600
O 	O 	0.18022 0.59460 0.58678 -0.49400
O 	O 	0.00450 0.40061 0.55076 -0.47600
C 	C 	0.34875 0.61602 0.61348 0.40400
O 	O 	0.17749 0.61129 0.45197 -0.48500
O 	O 	0.00175 0.41742 0.41499 -0.48000
C 	C 	0.34726 0.63790 0.43520 0.38900
O 	O 	0.50961 0.58258 0.58501 -0.49000
O 	O 	0.33742 0.43637 0.48802 -0.63800
V 	V 	0.06468 0.51180 0.50222 1.80800
O 	O 	0.67171 0.40540 0.41322 -0.49000
C 	C 	0.84094 0.38510 0.38606 0.40100
O 	O 	0.67444 0.38871 0.54803 -0.48500
C 	C 	0.84226 0.36213 0.56484 0.38400
V 	V 	0.56401 0.48820 0.49778 1.80800
O 	O 	0.84114 0.56363 0.51198 -0.64400
C 	C 	0.83515 0.11115 0.61266 -0.07000
H 	H 	0.82704 0.16140 0.51997 0.03000
H 	H 	0.83479 0.98583 0.69577 0.04100
H 	H 	0.82670 0.03286 0.58769 0.05300
C 	C 	0.84743 0.28520 0.60492 -0.10400
C 	C 	0.87449 0.31530 0.92849 0.03100
C 	C 	0.87519 0.39141 0.89277 -0.05000
C 	C 	0.86809 0.36871 0.82304 -0.02000
C 	C 	0.85987 0.26799 0.78690 -0.01000
C 	C 	0.85757 0.19024 0.82400 0.06600
C 	C 	0.85394 0.24183 0.71536 -0.01200
C 	C 	0.84387 0.13893 0.68281 0.03600
C 	C 	0.84194 0.06436 0.72031 -0.03700
C 	C 	0.84909 0.08938 0.78971 -0.05200
C 	C 	0.85707 0.31408 0.67472 0.01300
C 	C 	0.83576 0.18395 0.57400 0.03400
C 	C 	0.86521 0.21505 0.89490 -0.11700
H 	H 	0.86500 0.39343 0.69544 0.03500
H 	H 	0.88150 0.33460 0.98268 0.03100
H 	H 	0.86929 0.43195 0.79915 0.03900
H 	H 	0.88197 0.46888 0.91934 0.04600
H 	H 	0.84754 0.02856 0.81631 0.05500
C 	C 	0.00787 0.29985 0.27907 0.03000
C 	C 	0.84922 0.31548 0.31941 -0.16500
H 	H 	0.71714 0.27438 0.30387 0.09100
C 	C 	0.01293 0.22622 0.21376 0.02000
C 	C 	0.85691 0.18566 0.17918 -0.17300
H 	H 	0.15449 0.20731 0.19196 0.04400
H 	H 	0.71310 0.20511 0.19805 0.09100
C 	C 	0.20493 0.79062 0.78271 0.02100
C 	C 	0.36431 0.81587 0.81986 -0.17200
H 	H 	0.06713 0.82051 0.80249 0.04100
H 	H 	0.50304 0.78641 0.80142 0.08800
C 	C 	0.20269 0.72226 0.71519 0.01700
C 	C 	0.36057 0.68416 0.68021 -0.16900
H 	H 	0.06133 0.70340 0.69339 0.04200
H 	H 	0.50373 0.70255 0.70005 0.08800
C 	C 	0.41704 0.88636 0.38665 -0.07000
H 	H 	0.41474 0.83601 0.47938 0.03000
H 	H 	0.44795 0.01050 0.30315 0.04400
H 	H 	0.44638 0.96344 0.41129 0.05300
C 	C 	0.36006 0.71462 0.39504 -0.10400
C 	C 	0.31732 0.68621 0.07193 0.03100
C 	C 	0.29814 0.61078 0.10788 -0.04900
C 	C 	0.31271 0.63289 0.17746 -0.02000
C 	C 	0.34752 0.73230 0.21319 -0.00900
C 	C 	0.36886 0.80921 0.17584 0.06600
C 	C 	0.36189 0.75796 0.28458 -0.01100
C 	C 	0.39939 0.85934 0.31670 0.03700
C 	C 	0.41975 0.93310 0.27894 -0.03900
C 	C 	0.40433 0.90869 0.20971 -0.05100
C 	C 	0.34104 0.68661 0.32547 0.01300
C 	C 	0.39865 0.81424 0.42553 0.03400
C 	C 	0.35296 0.78505 0.10511 -0.11800
H 	H 	0.31188 0.60852 0.30508 0.04100
H 	H 	0.30391 0.66750 0.01788 0.03200
H 	H 	0.29601 0.57025 0.20154 0.04200
H 	H 	0.27095 0.53436 0.08162 0.04700
H 	H 	0.42106 0.96884 0.18290 0.05600
O 	O 	0.20323 0.91731 0.91502 -0.49000
O 	O 	0.53550 0.88869 0.04804 -0.48700
O 	O 	0.71108 0.08261 0.08500 -0.49100
C 	C 	0.36579 0.86226 0.06498 0.39000
O 	O 	0.53263 0.90537 0.91323 -0.49900
O 	O 	0.70819 0.09941 0.94923 -0.47700
C 	C 	0.36469 0.88423 0.88649 0.40500
O 	O 	0.20612 0.90051 0.05079 -0.47600
O 	O 	0.37536 0.06357 0.01199 -0.64400
V 	V 	0.64817 0.98820 0.99778 1.80600
O 	O 	0.03824 0.11139 0.95194 -0.48100
C 	C 	0.87044 0.13763 0.93493 0.38600
O 	O 	0.04112 0.09471 0.08675 -0.49900
C 	C 	0.87185 0.11612 0.11328 0.40600
V 	V 	0.14881 0.01193 0.00218 1.80600
O 	O 	0.87175 0.93643 0.98801 -0.64800
C 	C 	0.18654 0.35430 0.29730 0.08000
N 	N 	0.32968 0.39762 0.31152 -0.11000
