data_crystal

_cell_length_a 10.95659
_cell_length_b 10.96781
_cell_length_c 18.70560
_cell_angle_alpha 90.05457
_cell_angle_beta  89.96818
_cell_angle_gamma 60.13684

_symmetry_space_group_name_	'P 1'
_symmetry_space_group_name_H-M	'P 1'

loop_
_symmetry_equiv_pos_as_xyz
  x,y,z

loop_
_atom_site_label
_atom_site_type_symbol
_atom_site_fract_x
_atom_site_fract_y
_atom_site_fract_z
_atom_site_charge
C 	C 	0.31379 0.61041 0.61056 0.29500
C 	C 	0.68912 0.54374 0.79871 -0.09200
C 	C 	0.70308 0.67608 0.81167 -0.07000
C 	C 	0.67413 0.65035 0.67556 -0.09400
C 	C 	0.80590 0.66456 0.68689 -0.03800
C 	C 	0.69554 0.51871 0.71811 -0.02100
C 	C 	0.67101 0.16576 0.67326 -0.20400
C 	C 	0.67632 0.17774 0.83077 -0.19000
C 	C 	0.78269 0.15766 0.78890 0.04000
C 	C 	0.76306 0.18558 0.71175 0.02700
C 	C 	0.32466 0.58764 0.68745 -0.13900
C 	C 	0.65511 0.62348 0.60065 0.40200
C 	C 	0.18088 0.67753 0.83334 -0.08600
C 	C 	0.22298 0.55170 0.79868 0.05800
C 	C 	0.24582 0.54272 0.72066 -0.00100
C 	C 	0.59535 0.59333 0.30988 -0.13500
C 	C 	0.64003 0.66320 0.16021 -0.24100
C 	C 	0.69358 0.53265 0.18634 0.08500
C 	C 	0.70107 0.50747 0.26408 -0.03300
C 	C 	0.67747 0.12552 0.33798 -0.17300
C 	C 	0.68225 0.08423 0.18562 -0.22200
C 	C 	0.62541 0.03236 0.23093 0.19000
C 	C 	0.62733 0.22932 0.60254 0.45100
C 	C 	0.59905 0.07956 0.30518 -0.00800
C 	C 	0.11839 0.68363 0.34631 -0.16900
C 	C 	0.10260 0.69421 0.19232 -0.27300
C 	C 	0.03780 0.80835 0.23501 0.22800
C 	C 	0.07092 0.80294 0.31036 -0.02400
C 	C 	0.70064 0.10517 0.89873 0.45300
C 	C 	0.72597 0.69020 0.88759 0.41200
C 	C 	0.11616 0.70872 0.90567 0.39700
C 	C 	0.70179 0.04288 0.11175 0.39900
C 	C 	0.69277 0.68769 0.09424 0.47700
C 	C 	0.21461 0.65207 0.40501 0.45800
C 	C 	0.08161 0.71560 0.11643 0.48500
C 	C 	0.61118 0.58319 0.38870 0.32100
C 	C 	0.62117 0.22171 0.39797 0.44400
C 	C 	0.56674 0.80644 0.78393 -0.04800
C 	C 	0.54487 0.78610 0.70486 -0.04100
C 	C 	0.82919 0.66845 0.76806 -0.05000
Cr	Cr	0.39301 0.39805 0.50148 1.54100
Cr	Cr	0.39882 0.70798 0.50163 1.52700
Cr	Cr	0.70814 0.39394 0.49685 1.53100
Cr	Cr	0.93795 0.93845 0.00894 1.44500
Cr	Cr	0.62618 0.93703 0.99475 1.51300
Cr	Cr	0.93779 0.62576 0.00141 1.48800
H 	H 	0.57526 0.90303 0.78975 0.00800
H 	H 	0.80093 0.43060 0.70334 0.04100
H 	H 	0.92897 0.57316 0.78287 0.01900
H 	H 	0.90048 0.57461 0.66230 0.01000
H 	H 	0.88664 0.11800 0.81166 0.02800
H 	H 	0.82691 0.22242 0.68598 0.00700
H 	H 	0.57046 0.22758 0.80940 0.09500
H 	H 	0.61210 0.12121 0.69783 0.11000
H 	H 	0.17889 0.51586 0.68951 0.06400
H 	H 	0.47386 0.82254 0.81557 0.02100
H 	H 	0.39591 0.60828 0.71703 0.06300
H 	H 	0.76057 0.44343 0.15232 0.02100
H 	H 	0.57956 0.75534 0.19306 0.10100
H 	H 	0.58536 0.96569 0.21162 -0.08600
H 	H 	0.50372 0.09156 0.32964 0.08200
H 	H 	0.71758 0.15612 0.20286 0.12200
H 	H 	0.77818 0.10336 0.31623 0.09900
H 	H 	0.97372 0.91257 0.21248 -0.13900
H 	H 	0.44783 0.77972 0.69905 0.02600
H 	H 	0.07666 0.89160 0.33250 0.06000
H 	H 	0.16927 0.58844 0.21235 0.13500
H 	H 	0.10396 0.59880 0.32591 0.12000
H 	H 	0.52927 0.87933 0.67379 0.00700
H 	H 	0.84189 0.76079 0.78064 0.00500
H 	H 	0.79130 0.76251 0.66129 0.00300
H 	H 	0.58357 0.56672 0.81817 0.05900
H 	H 	0.61938 0.48500 0.70259 0.03200
O 	O 	0.50711 0.25628 0.58030 -0.48900
O 	O 	0.52464 0.69537 0.42510 -0.48500
O 	O 	0.73589 0.50439 0.41598 -0.44300
O 	O 	0.69056 0.27782 0.42235 -0.53200
O 	O 	0.49999 0.49999 0.49998 -0.75900
O 	O 	0.08919 0.82587 0.93232 -0.44500
O 	O 	0.81907 0.05396 0.93144 -0.49000
O 	O 	0.60707 0.07644 0.91646 -0.45200
O 	O 	0.64711 0.80655 0.91769 -0.54500
O 	O 	0.83708 0.59386 0.91530 -0.49200
O 	O 	0.06477 0.63608 0.93255 -0.45700
O 	O 	0.28083 0.52719 0.57794 -0.46500
O 	O 	0.06825 0.82920 0.09294 -0.47700
O 	O 	0.79965 0.05704 0.08033 -0.47800
O 	O 	0.58613 0.07976 0.07708 -0.41500
O 	O 	0.62770 0.80963 0.06658 -0.59000
O 	O 	0.81614 0.59718 0.07592 -0.53600
O 	O 	0.04536 0.63917 0.08144 -0.48300
O 	O 	0.83398 0.83375 0.00170 -0.83900
O 	O 	0.26136 0.73899 0.58427 -0.44300
O 	O 	0.53259 0.69478 0.57437 -0.54600
O 	O 	0.74447 0.50375 0.57700 -0.50000
O 	O 	0.69852 0.27723 0.57162 -0.55200
O 	O 	0.49853 0.25692 0.41928 -0.47100
O 	O 	0.27288 0.52778 0.42868 -0.52500
O 	O 	0.25278 0.73963 0.42325 -0.48700
C 	C 	0.22717 0.42420 0.83514 -0.12100
C 	C 	0.26647 0.29700 0.78578 -0.00100
C 	C 	0.28065 0.17100 0.82748 -0.17900
H 	H 	0.36997 0.13201 0.86531 0.08500
H 	H 	0.18306 0.19996 0.85799 0.10600
H 	H 	0.29972 0.08518 0.78967 0.09700
H 	H 	0.18240 0.32577 0.74520 0.05700
H 	H 	0.36670 0.26547 0.75733 0.03500
H 	H 	0.30340 0.39073 0.88011 0.06700
H 	H 	0.12209 0.45291 0.85643 0.09800
C 	C 	0.18033 0.80447 0.79662 -0.11500
C 	C 	0.07495 0.86906 0.73457 0.22200
C 	C 	0.09622 0.97990 0.69576 -0.50500
H 	H 	0.07194 0.06996 0.73154 0.22500
H 	H 	0.20669 0.93456 0.67763 0.11400
H 	H 	0.02805 0.01741 0.64770 0.24000
H 	H 	0.08001 0.79357 0.69438 0.01400
H 	H 	0.96768 0.91270 0.75595 -0.13500
H 	H 	0.15356 0.89321 0.83362 0.05700
H 	H 	0.28747 0.77893 0.78194 0.04600
C 	C 	0.84140 0.39499 0.28755 0.28000
O 	O 	0.92610 0.42553 0.31222 -0.27500
O 	O 	0.88048 0.25454 0.27576 -0.31400
H 	H 	0.97984 0.18716 0.29242 0.14300
C 	C 	0.45199 0.69340 0.28179 0.31100
O 	O 	0.38277 0.81076 0.30786 -0.26300
O 	O 	0.39982 0.65577 0.22279 -0.30900
H 	H 	0.31582 0.74018 0.20092 0.16300
C 	C 	0.79682 0.41391 0.83835 0.29800
O 	O 	0.91930 0.34900 0.81826 -0.31000
O 	O 	0.75700 0.37518 0.90157 -0.30600
H 	H 	0.83911 0.29273 0.92602 0.14300
