data_crystal

_cell_length_a 7.24864
_cell_length_b 20.79432
_cell_length_c 23.90266
_cell_angle_alpha 89.99947
_cell_angle_beta  90.00161
_cell_angle_gamma 89.99656

_symmetry_space_group_name_	'P 1'
_symmetry_space_group_name_H-M	'P 1'

loop_
_symmetry_equiv_pos_as_xyz
  x,y,z

loop_
_atom_site_label
_atom_site_type_symbol
_atom_site_fract_x
_atom_site_fract_y
_atom_site_fract_z
_atom_site_charge
O 	O 	0.61527 0.80654 0.19226 -0.48400
O 	O 	0.38473 0.19346 0.80774 -0.48400
O 	O 	0.38473 0.19346 0.69226 -0.48400
O 	O 	0.61527 0.80654 0.30774 -0.48400
O 	O 	0.11527 0.69346 0.30774 -0.48400
O 	O 	0.88473 0.30654 0.69226 -0.48400
O 	O 	0.88473 0.30654 0.80774 -0.48400
O 	O 	0.11527 0.69346 0.19226 -0.48400
O 	O 	0.28550 0.81397 0.30734 -0.49200
O 	O 	0.71450 0.18603 0.69266 -0.49200
O 	O 	0.71450 0.18603 0.80734 -0.49200
O 	O 	0.28550 0.81397 0.19266 -0.49200
O 	O 	0.78550 0.68603 0.19266 -0.49200
O 	O 	0.21450 0.31397 0.80734 -0.49200
O 	O 	0.21450 0.31397 0.69266 -0.49200
O 	O 	0.78550 0.68603 0.30734 -0.49200
C 	C 	0.45248 0.82890 0.32597 0.36100
C 	C 	0.54752 0.17110 0.67403 0.36100
C 	C 	0.54752 0.17110 0.82596 0.36100
C 	C 	0.45248 0.82890 0.17403 0.36100
C 	C 	0.95248 0.67110 0.17403 0.36200
C 	C 	0.04752 0.32890 0.82597 0.36300
C 	C 	0.04752 0.32890 0.67403 0.36200
C 	C 	0.95248 0.67110 0.32597 0.36200
O 	O 	0.44876 0.71046 0.25000 -0.61300
O 	O 	0.55124 0.28954 0.75000 -0.61300
O 	O 	0.94876 0.78954 0.25000 -0.61200
O 	O 	0.05124 0.21046 0.75000 -0.61200
V 	V 	0.17390 0.75733 0.25000 1.80700
V 	V 	0.82610 0.24267 0.75000 1.80700
V 	V 	0.67390 0.74267 0.25000 1.80800
V 	V 	0.32610 0.25733 0.75000 1.80800
C 	C 	0.09570 0.53065 0.53994 -0.08500
C 	C 	0.90433 0.46934 0.46004 -0.08500
C 	C 	0.90431 0.46935 0.03995 -0.08500
C 	C 	0.09567 0.53066 0.96005 -0.08500
C 	C 	0.59558 0.96930 0.96004 -0.08500
C 	C 	0.40433 0.03068 0.03994 -0.08500
C 	C 	0.40435 0.03068 0.46004 -0.08500
C 	C 	0.59570 0.96934 0.53994 -0.08500
C 	C 	0.90567 0.55205 0.51680 0.03100
C 	C 	0.09435 0.44793 0.48318 0.03100
C 	C 	0.09433 0.44794 0.01681 0.03000
C 	C 	0.90564 0.55206 0.98318 0.03000
C 	C 	0.40556 0.94794 0.98320 0.03100
C 	C 	0.59434 0.05204 0.01677 0.03100
C 	C 	0.59436 0.05207 0.48319 0.03000
C 	C 	0.40568 0.94795 0.51679 0.03000
C 	C 	0.95298 0.62455 0.37111 -0.11800
C 	C 	0.04704 0.37544 0.62889 -0.11800
C 	C 	0.04703 0.37544 0.87111 -0.11800
C 	C 	0.95296 0.62455 0.12889 -0.11800
C 	C 	0.45296 0.87545 0.12890 -0.11800
C 	C 	0.54700 0.12454 0.87110 -0.11800
C 	C 	0.54704 0.12455 0.62889 -0.11800
C 	C 	0.45299 0.87545 0.37110 -0.11800
C 	C 	0.16524 0.51846 0.47935 0.03400
C 	C 	0.83478 0.48152 0.52063 0.03400
C 	C 	0.83476 0.48153 0.97936 0.03400
C 	C 	0.16522 0.51848 0.02064 0.03400
C 	C 	0.66519 0.98151 0.02062 0.03400
C 	C 	0.33473 0.01848 0.97936 0.03400
C 	C 	0.33479 0.01849 0.52063 0.03500
C 	C 	0.66525 0.98153 0.47935 0.03500
C 	C 	0.97458 0.53964 0.45634 -0.01700
C 	C 	0.02545 0.46034 0.54364 -0.01700
C 	C 	0.02542 0.46035 0.95635 -0.01700
C 	C 	0.97455 0.53965 0.04365 -0.01700
C 	C 	0.47454 0.96037 0.04366 -0.01800
C 	C 	0.52536 0.03961 0.95632 -0.01800
C 	C 	0.52544 0.03965 0.54365 -0.01800
C 	C 	0.47460 0.96037 0.45633 -0.01800
C 	C 	0.95383 0.58584 0.40933 0.05600
C 	C 	0.04619 0.41415 0.59066 0.05600
C 	C 	0.04618 0.41415 0.90933 0.05600
C 	C 	0.95381 0.58585 0.09067 0.05600
C 	C 	0.45383 0.91417 0.09068 0.05600
C 	C 	0.54609 0.08583 0.90931 0.05600
C 	C 	0.54617 0.08585 0.59067 0.05600
C 	C 	0.45387 0.91417 0.40932 0.05600
C 	C 	0.80947 0.61542 0.53246 -0.10200
C 	C 	0.74718 0.61856 0.59379 -0.02000
C 	C 	0.67593 0.68561 0.60828 -0.16000
H 	H 	0.78897 0.72145 0.60480 0.06600
H 	H 	0.56215 0.69959 0.57965 0.07300
H 	H 	0.62319 0.68601 0.65190 0.06100
H 	H 	0.63553 0.58339 0.60173 0.03800
H 	H 	0.86308 0.60704 0.62227 0.04400
H 	H 	0.90780 0.65528 0.52405 0.06100
H 	H 	0.68903 0.62259 0.50470 0.05100
C 	C 	0.19056 0.38457 0.46752 -0.10200
C 	C 	0.25289 0.38144 0.40620 -0.02000
C 	C 	0.32402 0.31437 0.39169 -0.15900
H 	H 	0.43774 0.30035 0.42033 0.07300
H 	H 	0.21091 0.27855 0.39515 0.06600
H 	H 	0.37681 0.31398 0.34808 0.06100
H 	H 	0.13705 0.39299 0.37771 0.04400
H 	H 	0.36462 0.41657 0.39827 0.03800
H 	H 	0.31098 0.37739 0.49528 0.05100
H 	H 	0.09222 0.34470 0.47592 0.06100
C 	C 	0.19054 0.38458 0.03247 -0.10200
C 	C 	0.25286 0.38144 0.09380 -0.02000
C 	C 	0.32408 0.31438 0.10830 -0.16000
H 	H 	0.21102 0.27855 0.10483 0.06600
H 	H 	0.43784 0.30039 0.07966 0.07300
H 	H 	0.37685 0.31399 0.15191 0.06100
H 	H 	0.36453 0.41660 0.10173 0.03800
H 	H 	0.13699 0.39297 0.12228 0.04400
H 	H 	0.09221 0.34471 0.02407 0.06100
H 	H 	0.31096 0.37740 0.00471 0.05100
C 	C 	0.80943 0.61542 0.96752 -0.10200
C 	C 	0.74708 0.61855 0.90620 -0.02000
C 	C 	0.67598 0.68562 0.89168 -0.15900
H 	H 	0.56226 0.69965 0.92032 0.07300
H 	H 	0.78910 0.72143 0.89514 0.06600
H 	H 	0.62318 0.68601 0.84807 0.06100
H 	H 	0.86292 0.60699 0.87771 0.04400
H 	H 	0.63535 0.58342 0.89827 0.03800
H 	H 	0.68901 0.62260 0.99528 0.05100
H 	H 	0.90777 0.65529 0.97592 0.06100
C 	C 	0.30929 0.88457 0.96760 -0.10200
C 	C 	0.24656 0.88144 0.90631 -0.02000
C 	C 	0.17566 0.81435 0.89180 -0.15900
H 	H 	0.28901 0.77861 0.89515 0.06600
H 	H 	0.06228 0.80023 0.92053 0.07300
H 	H 	0.12248 0.81397 0.84824 0.06200
H 	H 	0.13461 0.91652 0.89847 0.03800
H 	H 	0.36215 0.89309 0.87776 0.04400
H 	H 	0.40772 0.84471 0.97594 0.06100
H 	H 	0.18906 0.87739 0.99543 0.05100
C 	C 	0.69060 0.11542 0.03236 -0.10200
C 	C 	0.75327 0.11859 0.09365 -0.02000
C 	C 	0.82421 0.18569 0.10812 -0.15900
H 	H 	0.93771 0.19976 0.07942 0.07300
H 	H 	0.71093 0.22145 0.10472 0.06600
H 	H 	0.87724 0.18611 0.15170 0.06200
H 	H 	0.63763 0.10699 0.12220 0.04400
H 	H 	0.86518 0.08350 0.10153 0.03800
H 	H 	0.81084 0.12259 0.00452 0.05100
H 	H 	0.59217 0.15528 0.02399 0.06100
C 	C 	0.69059 0.11543 0.46756 -0.10200
C 	C 	0.75307 0.11858 0.40625 -0.02000
C 	C 	0.82415 0.18565 0.39175 -0.15900
H 	H 	0.71098 0.22145 0.39519 0.06600
H 	H 	0.93779 0.19968 0.42042 0.07300
H 	H 	0.87703 0.18605 0.34815 0.06100
H 	H 	0.86485 0.08345 0.39835 0.03800
H 	H 	0.63731 0.10701 0.37773 0.04400
H 	H 	0.59221 0.15530 0.47594 0.06100
H 	H 	0.81093 0.12261 0.49535 0.05100
C 	C 	0.30947 0.88458 0.53242 -0.10200
C 	C 	0.24700 0.88143 0.59373 -0.02000
C 	C 	0.17597 0.81434 0.60822 -0.15900
H 	H 	0.06236 0.80030 0.57955 0.07300
H 	H 	0.28918 0.77856 0.60479 0.06600
H 	H 	0.12308 0.81394 0.65182 0.06100
H 	H 	0.36275 0.89300 0.62224 0.04400
H 	H 	0.13518 0.91654 0.60163 0.03800
H 	H 	0.18913 0.87741 0.50462 0.05100
H 	H 	0.40786 0.84472 0.52403 0.06100
C 	C 	0.19189 0.56837 0.58490 0.28100
O 	O 	0.26413 0.61977 0.57340 -0.26500
O 	O 	0.18568 0.54733 0.64034 -0.31600
H 	H 	0.25215 0.57757 0.66681 0.15200
C 	C 	0.80817 0.43161 0.41508 0.28100
O 	O 	0.73580 0.38024 0.42658 -0.26500
O 	O 	0.81460 0.45262 0.35963 -0.31600
H 	H 	0.74815 0.42238 0.33315 0.15200
C 	C 	0.80814 0.43161 0.08491 0.28100
O 	O 	0.73586 0.38023 0.07340 -0.26500
O 	O 	0.81442 0.45264 0.14035 -0.31600
H 	H 	0.74797 0.42240 0.16682 0.15200
C 	C 	0.19183 0.56839 0.91509 0.28100
O 	O 	0.26414 0.61977 0.92659 -0.26500
O 	O 	0.18548 0.54738 0.85964 -0.31600
H 	H 	0.25191 0.57762 0.83317 0.15200
C 	C 	0.69149 0.93150 0.91507 0.28100
O 	O 	0.76427 0.88021 0.92663 -0.26500
O 	O 	0.68429 0.95232 0.85957 -0.31600
H 	H 	0.75062 0.92205 0.83310 0.15200
C 	C 	0.30837 0.06846 0.08491 0.28100
O 	O 	0.23569 0.11977 0.07338 -0.26500
O 	O 	0.31542 0.04758 0.14039 -0.31600
H 	H 	0.24911 0.07784 0.16688 0.15200
C 	C 	0.30829 0.06845 0.41508 0.28100
O 	O 	0.23573 0.11978 0.42661 -0.26500
O 	O 	0.31510 0.04753 0.35960 -0.31600
H 	H 	0.24871 0.07779 0.33313 0.15200
C 	C 	0.69178 0.93159 0.58491 0.28100
O 	O 	0.76441 0.88027 0.57339 -0.26500
O 	O 	0.68494 0.95253 0.64038 -0.31600
H 	H 	0.75134 0.92229 0.66686 0.15200
C 	C 	0.64426 0.46000 0.54287 -0.11200
C 	C 	0.65259 0.42608 0.59953 -0.01100
C 	C 	0.46562 0.41153 0.62343 -0.17700
H 	H 	0.38393 0.45600 0.62643 0.08600
H 	H 	0.39702 0.37547 0.59633 0.07700
H 	H 	0.48211 0.39114 0.66604 0.08600
H 	H 	0.71704 0.37831 0.59345 0.04500
H 	H 	0.72877 0.45628 0.63019 0.04200
H 	H 	0.55312 0.50220 0.54652 0.05400
H 	H 	0.58238 0.42620 0.51261 0.06200
C 	C 	0.35575 0.53998 0.45711 -0.11200
C 	C 	0.34744 0.57386 0.40042 -0.01100
C 	C 	0.53444 0.58836 0.37651 -0.17700
H 	H 	0.60291 0.62452 0.40353 0.07700
H 	H 	0.61621 0.54389 0.37367 0.08600
H 	H 	0.51802 0.60858 0.33384 0.08600
H 	H 	0.27122 0.54364 0.36978 0.04200
H 	H 	0.28304 0.62164 0.40646 0.04500
H 	H 	0.41762 0.57380 0.48735 0.06200
H 	H 	0.44690 0.49778 0.45348 0.05400
C 	C 	0.35574 0.53999 0.04288 -0.11200
C 	C 	0.34742 0.57388 0.09956 -0.01100
C 	C 	0.53440 0.58840 0.12346 -0.17700
H 	H 	0.61613 0.54394 0.12640 0.08600
H 	H 	0.60296 0.62451 0.09640 0.07700
H 	H 	0.51795 0.60873 0.16609 0.08600
H 	H 	0.28299 0.62166 0.09351 0.04500
H 	H 	0.27122 0.54366 0.13021 0.04200
H 	H 	0.44690 0.49780 0.04651 0.05400
H 	H 	0.41759 0.57381 0.01264 0.06200
C 	C 	0.64424 0.46001 0.95711 -0.11200
C 	C 	0.65256 0.42613 0.90043 -0.01100
C 	C 	0.46557 0.41161 0.87652 -0.17700
H 	H 	0.39708 0.37547 0.90355 0.07700
H 	H 	0.38381 0.45608 0.87364 0.08600
H 	H 	0.48202 0.39136 0.83386 0.08600
H 	H 	0.72877 0.45635 0.86979 0.04200
H 	H 	0.71698 0.37835 0.90648 0.04500
H 	H 	0.58237 0.42620 0.98736 0.06200
H 	H 	0.55309 0.50221 0.95348 0.05400
C 	C 	0.14426 0.03999 0.95708 -0.11200
C 	C 	0.15245 0.07346 0.90019 -0.01000
C 	C 	0.96532 0.08775 0.87624 -0.17800
H 	H 	0.88333 0.04330 0.87396 0.08600
H 	H 	0.89729 0.12432 0.90295 0.07700
H 	H 	0.98138 0.10736 0.83333 0.08600
H 	H 	0.21668 0.12131 0.90596 0.04500
H 	H 	0.22878 0.04306 0.86971 0.04200
H 	H 	0.05294 0.99781 0.95370 0.05300
H 	H 	0.08269 0.07404 0.98718 0.06200
C 	C 	0.85568 0.96001 0.04290 -0.11200
C 	C 	0.84744 0.92642 0.09972 -0.01000
C 	C 	0.03450 0.91205 0.12366 -0.17800
H 	H 	0.10290 0.87575 0.09676 0.07700
H 	H 	0.11627 0.95653 0.12631 0.08600
H 	H 	0.01824 0.89204 0.16642 0.08600
H 	H 	0.77113 0.95676 0.13026 0.04200
H 	H 	0.78316 0.87859 0.09386 0.04500
H 	H 	0.91734 0.92601 0.01277 0.06200
H 	H 	0.94695 0.00219 0.04635 0.05400
C 	C 	0.85575 0.96003 0.45709 -0.11200
C 	C 	0.84749 0.92635 0.40031 -0.01000
C 	C 	0.03454 0.91194 0.37638 -0.17800
H 	H 	0.11638 0.95640 0.37376 0.08600
H 	H 	0.10286 0.87562 0.40327 0.07700
H 	H 	0.01827 0.89196 0.33361 0.08600
H 	H 	0.78318 0.87853 0.40622 0.04500
H 	H 	0.77120 0.95665 0.36974 0.04200
H 	H 	0.94696 0.00222 0.45358 0.05300
H 	H 	0.91749 0.92609 0.48726 0.06200
C 	C 	0.14429 0.03999 0.54290 -0.11200
C 	C 	0.15257 0.07372 0.59965 -0.01000
C 	C 	0.96555 0.08815 0.62358 -0.17800
H 	H 	0.89706 0.12436 0.59661 0.07700
H 	H 	0.88381 0.04368 0.62636 0.08600
H 	H 	0.98191 0.10831 0.66627 0.08600
H 	H 	0.22885 0.04343 0.63024 0.04200
H 	H 	0.21690 0.12152 0.59370 0.04500
H 	H 	0.08251 0.07390 0.51271 0.06200
H 	H 	0.05308 0.99780 0.54643 0.05300
