data_crystal

_cell_length_a 7.04054
_cell_length_b 14.56927
_cell_length_c 16.04592
_cell_angle_alpha 90.04989
_cell_angle_beta  89.05651
_cell_angle_gamma 90.83564

_symmetry_space_group_name_	'P 1'
_symmetry_space_group_name_H-M	'P 1'

loop_
_symmetry_equiv_pos_as_xyz
  x,y,z

loop_
_atom_site_label
_atom_site_type_symbol
_atom_site_fract_x
_atom_site_fract_y
_atom_site_fract_z
_atom_site_charge
O 	O 	0.50570 0.58389 0.41331 -0.48000
O 	O 	0.17596 0.59492 0.58608 -0.49000
O 	O 	0.00566 0.41611 0.58669 -0.48900
C 	C 	0.34471 0.61834 0.61326 0.36500
O 	O 	0.17598 0.59492 0.41393 -0.49500
O 	O 	0.00568 0.41611 0.41331 -0.48500
C 	C 	0.34667 0.61827 0.38669 0.36000
O 	O 	0.50568 0.58389 0.58669 -0.48400
O 	O 	0.33920 0.44133 0.50000 -0.63300
V 	V 	0.06435 0.51088 0.50000 1.80300
O 	O 	0.67596 0.40508 0.41392 -0.48600
C 	C 	0.84476 0.38253 0.38615 0.36900
O 	O 	0.67594 0.40508 0.58607 -0.48000
C 	C 	0.84147 0.38347 0.61483 0.38700
V 	V 	0.56434 0.48912 0.50000 1.80400
O 	O 	0.83936 0.55867 0.50000 -0.64000
C 	C 	0.99247 0.24975 0.68075 0.05900
C 	C 	0.84162 0.30880 0.67759 -0.14300
C 	C 	0.68754 0.28769 0.73244 0.11400
C 	C 	0.69994 0.21048 0.78720 0.10700
C 	C 	0.87825 0.18018 0.81129 -0.13100
C 	C 	0.01313 0.19104 0.74794 0.03700
C 	C 	0.21643 0.20386 0.74638 -0.07900
C 	C 	0.19689 0.26936 0.67383 -0.08900
H 	H 	0.26798 0.13716 0.72528 0.06400
H 	H 	0.26533 0.23623 0.80520 0.07600
H 	H 	0.26036 0.24384 0.61445 0.06700
H 	H 	0.22561 0.34248 0.68881 0.08200
C 	C 	0.72487 0.23929 0.19677 0.03400
C 	C 	0.88186 0.18417 0.18286 -0.09700
C 	C 	0.03100 0.19454 0.24048 -0.00200
C 	C 	0.01772 0.25801 0.30754 -0.00700
C 	C 	0.85581 0.31341 0.31882 -0.09200
C 	C 	0.71130 0.29941 0.26161 0.02600
C 	C 	0.51135 0.32252 0.24255 0.04200
C 	C 	0.53001 0.25689 0.16680 0.03700
H 	H 	0.41537 0.29674 0.29330 0.03000
H 	H 	0.43960 0.19356 0.16947 0.03700
C 	C 	0.48966 0.75995 0.68083 0.02900
C 	C 	0.35129 0.68932 0.67958 -0.09500
C 	C 	0.21400 0.68866 0.74492 0.00300
C 	C 	0.22811 0.75037 0.81280 -0.00400
H 	H 	0.12879 0.74436 0.86460 0.05600
C 	C 	0.37791 0.81496 0.81715 -0.08300
C 	C 	0.50591 0.81734 0.74996 0.01900
C 	C 	0.71812 0.81586 0.74513 0.04200
C 	C 	0.70053 0.76107 0.66404 0.03600
H 	H 	0.78053 0.88539 0.73520 0.04700
H 	H 	0.77107 0.69301 0.66448 0.04600
C 	C 	0.52982 0.71116 0.27890 0.05500
C 	C 	0.36048 0.69187 0.32282 -0.09000
C 	C 	0.20460 0.74880 0.30639 -0.06100
C 	C 	0.21349 0.81581 0.24211 0.15500
C 	C 	0.37768 0.82332 0.18970 -0.13200
C 	C 	0.53698 0.77420 0.21410 0.02200
C 	C 	0.68222 0.71995 0.16667 0.08000
C 	C 	0.67425 0.65026 0.23852 -0.14100
H 	H 	0.80779 0.64933 0.27443 0.07200
O 	O 	0.22900 0.91607 0.91333 -0.46900
O 	O 	0.55877 0.90507 0.08608 -0.48600
O 	O 	0.72900 0.08390 0.08669 -0.47200
C 	C 	0.38863 0.88510 0.11603 0.38500
O 	O 	0.55872 0.90507 0.91393 -0.47100
O 	O 	0.72896 0.08390 0.91331 -0.47800
C 	C 	0.38987 0.88207 0.88644 0.36000
O 	O 	0.22905 0.91607 0.08671 -0.46800
O 	O 	0.39546 0.05865 0.00002 -0.61800
V 	V 	0.67034 0.98912 -0.00000 1.80200
O 	O 	0.05867 0.09496 0.91390 -0.49500
C 	C 	0.89192 0.11528 0.88358 0.37800
O 	O 	0.05872 0.09496 0.08605 -0.48300
C 	C 	0.89003 0.11665 0.11439 0.37000
V 	V 	0.17033 0.01093 0.99997 1.79200
O 	O 	0.89534 0.94135 0.99998 -0.61200
O 	O 	0.53475 0.34512 0.73679 -0.18700
C 	C 	0.55477 0.40282 0.80677 -0.02600
H 	H 	0.55005 0.36273 0.86577 0.04300
H 	H 	0.43407 0.45094 0.80870 0.04000
H 	H 	0.68806 0.44480 0.80238 0.04100
O 	O 	0.53864 0.30345 0.08951 -0.15700
C 	C 	0.36022 0.29779 0.05110 -0.02100
H 	H 	0.33757 0.22860 0.02397 0.06400
H 	H 	0.35799 0.34831 0.99950 0.03600
H 	H 	0.24097 0.31408 0.09464 0.04800
H 	H 	0.10139 0.63722 0.74586 0.04000
O 	O 	0.81170 0.77010 0.81112 -0.16500
C 	C 	0.72440 0.68743 0.83996 -0.03500
H 	H 	0.66061 0.64477 0.79023 0.04300
H 	H 	0.61711 0.70234 0.88928 0.05800
H 	H 	0.83436 0.64503 0.86931 0.04500
O 	O 	0.74764 0.81926 0.59585 -0.17300
C 	C 	0.78565 0.76717 0.52391 -0.03500
H 	H 	0.66239 0.72255 0.50791 0.06200
H 	H 	0.91702 0.72693 0.53153 0.05700
H 	H 	0.81093 0.81479 0.47085 0.04800
H 	H 	0.07354 0.74039 0.34201 0.06100
O 	O 	0.54911 0.15039 0.79737 -0.17800
C 	C 	0.57811 0.07288 0.74440 -0.03100
H 	H 	0.46216 0.02191 0.75589 0.04500
H 	H 	0.71185 0.03646 0.75658 0.04700
H 	H 	0.57581 0.09331 0.67760 0.04200
O 	O 	0.05593 0.86826 0.22663 -0.19400
C 	C 	0.04220 0.93708 0.28810 -0.01900
H 	H 	0.17344 0.98065 0.28955 0.04000
H 	H 	0.01111 0.90716 0.35068 0.03800
H 	H 	0.92240 0.98229 0.27255 0.04400
H 	H 	0.82050 0.75718 0.16337 0.04400
O 	O 	0.62713 0.69099 0.08539 -0.17400
C 	C 	0.46937 0.62991 0.08334 -0.03400
H 	H 	0.35507 0.64728 0.12881 0.04900
H 	H 	0.51649 0.55825 0.09211 0.05200
H 	H 	0.40647 0.63359 0.02053 0.04800
H 	H 	0.61784 0.58113 0.22404 0.08300
H 	H 	0.15487 0.15178 0.23549 0.03700
H 	H 	0.13145 0.26203 0.35189 0.04400
O 	O 	0.49463 0.41562 0.21974 -0.16800
C 	C 	0.31119 0.44579 0.24175 -0.03600
H 	H 	0.19885 0.40347 0.21188 0.04900
H 	H 	0.29455 0.51728 0.22016 0.04500
H 	H 	0.29092 0.44527 0.31048 0.05100
