data_crystal

_cell_length_a 6.94551
_cell_length_b 13.64938
_cell_length_c 20.40462
_cell_angle_alpha 102.05245
_cell_angle_beta  90.04888
_cell_angle_gamma 91.01446

_symmetry_space_group_name_	'P 1'
_symmetry_space_group_name_H-M	'P 1'

loop_
_symmetry_equiv_pos_as_xyz
  x,y,z

loop_
_atom_site_label
_atom_site_type_symbol
_atom_site_fract_x
_atom_site_fract_y
_atom_site_fract_z
_atom_site_charge
O 	O 	0.50686 0.59939 0.44924 -0.47700
O 	O 	0.18022 0.59460 0.58678 -0.49500
O 	O 	0.00450 0.40061 0.55076 -0.47500
C 	C 	0.34971 0.61563 0.61360 0.39600
O 	O 	0.17749 0.61129 0.45197 -0.48500
O 	O 	0.00175 0.41742 0.41499 -0.47900
C 	C 	0.34740 0.63807 0.43534 0.39000
O 	O 	0.50961 0.58258 0.58501 -0.48900
O 	O 	0.33742 0.43637 0.48802 -0.63500
V 	V 	0.06468 0.51180 0.50222 1.80800
O 	O 	0.67171 0.40540 0.41322 -0.48200
C 	C 	0.83881 0.38761 0.38534 0.40600
O 	O 	0.67444 0.38871 0.54803 -0.48500
C 	C 	0.84182 0.36223 0.56493 0.38200
V 	V 	0.56401 0.48820 0.49778 1.80800
O 	O 	0.84114 0.56363 0.51198 -0.64400
C 	C 	0.76253 0.11641 0.61543 -0.06600
H 	H 	0.75903 0.16575 0.52239 0.03700
H 	H 	0.71268 0.99626 0.70048 0.03100
H 	H 	0.71883 0.04064 0.59173 0.05500
C 	C 	0.84282 0.28520 0.60500 -0.10200
C 	C 	0.92221 0.31420 0.92788 0.03000
C 	C 	0.94390 0.38904 0.89148 -0.04900
C 	C 	0.91799 0.36740 0.82218 -0.02000
C 	C 	0.86667 0.26939 0.78736 -0.01200
C 	C 	0.83738 0.19393 0.82550 0.06800
C 	C 	0.84463 0.24347 0.71607 -0.00900
C 	C 	0.78903 0.14369 0.68509 0.03100
C 	C 	0.75715 0.07203 0.72378 -0.02700
C 	C 	0.78110 0.09666 0.79277 -0.06000
C 	C 	0.87368 0.31309 0.67424 0.01100
C 	C 	0.78686 0.18709 0.57579 0.03300
C 	C 	0.86878 0.21680 0.89574 -0.11700
H 	H 	0.91353 0.39030 0.69387 0.03500
H 	H 	0.94922 0.33203 0.98142 0.03400
H 	H 	0.93978 0.42914 0.79753 0.03800
H 	H 	0.98454 0.46429 0.91704 0.04500
H 	H 	0.75370 0.03882 0.82058 0.05700
C 	C 	0.99457 0.28129 0.28746 0.02800
C 	C 	0.83999 0.33523 0.31363 -0.17000
H 	H 	0.11891 0.27898 0.31938 0.06800
C 	C 	0.01054 0.22288 0.21723 0.04700
C 	C 	0.86033 0.17301 0.18313 -0.17000
H 	H 	0.15300 0.21600 0.19504 0.05400
H 	H 	0.72073 0.17389 0.20705 0.11100
C 	C 	0.20045 0.79381 0.77935 0.12400
C 	C 	0.35464 0.81028 0.82135 -0.21300
H 	H 	0.48065 0.76449 0.80900 0.09500
C 	C 	0.20421 0.71358 0.71653 -0.02100
C 	C 	0.36243 0.68662 0.67931 -0.15200
H 	H 	0.06808 0.67882 0.69767 0.05400
H 	H 	0.50200 0.71978 0.69548 0.07700
C 	C 	0.40863 0.88830 0.38871 -0.07700
H 	H 	0.39407 0.83719 0.48112 0.02800
H 	H 	0.42449 0.96512 0.41550 0.06900
C 	C 	0.36070 0.71546 0.39563 -0.10700
C 	C 	0.31897 0.68647 0.07261 0.02800
C 	C 	0.30379 0.61126 0.10884 -0.04400
C 	C 	0.32148 0.63392 0.17840 -0.02400
C 	C 	0.35534 0.73379 0.21399 0.00300
C 	C 	0.37262 0.81026 0.17636 0.05400
C 	C 	0.37036 0.76013 0.28542 -0.02300
C 	C 	0.40469 0.86234 0.31794 0.06900
C 	C 	0.42894 0.93646 0.27922 -0.08000
C 	C 	0.40884 0.90983 0.20967 -0.02000
C 	C 	0.35087 0.68796 0.32590 0.02200
C 	C 	0.38821 0.81547 0.42694 0.04200
C 	C 	0.35379 0.78558 0.10555 -0.11100
H 	H 	0.32859 0.60933 0.30517 0.04100
H 	H 	0.30373 0.66737 0.01855 0.03400
H 	H 	0.30739 0.57110 0.20242 0.04600
H 	H 	0.27738 0.53455 0.08281 0.04800
H 	H 	0.42637 0.96824 0.18133 0.05800
O 	O 	0.20323 0.91731 0.91502 -0.49000
O 	O 	0.53550 0.88869 0.04804 -0.48600
O 	O 	0.71108 0.08261 0.08500 -0.48500
C 	C 	0.36581 0.86226 0.06496 0.38800
O 	O 	0.53263 0.90537 0.91323 -0.50500
O 	O 	0.70819 0.09941 0.94923 -0.47400
C 	C 	0.36303 0.88388 0.88642 0.41600
O 	O 	0.20612 0.90051 0.05079 -0.47500
O 	O 	0.37536 0.06357 0.01199 -0.64000
V 	V 	0.64817 0.98820 0.99778 1.80300
O 	O 	0.03824 0.11139 0.95194 -0.47900
C 	C 	0.87073 0.13825 0.93525 0.38300
O 	O 	0.04112 0.09471 0.08675 -0.49200
C 	C 	0.87315 0.11332 0.11413 0.41100
V 	V 	0.14881 0.01193 0.00218 1.80900
O 	O 	0.87175 0.93643 0.98801 -0.64800
C 	C 	0.67812 0.35575 0.27067 0.32600
O 	O 	0.51206 0.35465 0.29042 -0.23300
O 	O 	0.71655 0.37919 0.20837 -0.30800
H 	H 	0.59520 0.39239 0.18418 0.16400
N 	N 	0.03241 0.85348 0.79531 -0.14000
H 	H 	0.05878 0.92964 0.80281 0.09200
C 	C 	0.85422 0.82063 0.76014 -0.09300
H 	H 	0.73641 0.87015 0.78227 0.05300
H 	H 	0.81539 0.74346 0.76557 0.05300
H 	H 	0.86714 0.82397 0.70638 0.05000
C 	C 	0.48087 0.04259 0.30895 0.29200
O 	O 	0.40056 0.11017 0.28923 -0.23300
O 	O 	0.62770 0.06537 0.35696 -0.30400
H 	H 	0.65177 0.14018 0.37221 0.17000
