data_crystal

_cell_length_a 10.94866
_cell_length_b 13.03022
_cell_length_c 11.77908
_cell_angle_alpha 100.21415
_cell_angle_beta  93.86475
_cell_angle_gamma 91.87418

_symmetry_space_group_name_	'P 1'
_symmetry_space_group_name_H-M	'P 1'

loop_
_symmetry_equiv_pos_as_xyz
  x,y,z

loop_
_atom_site_label
_atom_site_type_symbol
_atom_site_fract_x
_atom_site_fract_y
_atom_site_fract_z
_atom_site_charge
C 	C 	0.49922 0.29846 0.47713 0.30900
C 	C 	0.53887 0.03045 0.54583 -0.02000
C 	C 	0.50863 0.96536 0.43772 0.01600
C 	C 	0.25971 0.50245 0.50094 0.29600
C 	C 	0.49993 0.85759 0.43234 -0.02000
C 	C 	0.54312 0.87988 0.63969 -0.00500
C 	C 	0.55753 0.98725 0.64602 -0.03200
C 	C 	0.37949 0.40920 0.02232 -0.10900
C 	C 	0.38902 0.41361 0.14383 0.17500
C 	C 	0.55221 0.54208 0.15817 0.00200
C 	C 	0.54498 0.53548 0.03580 0.02400
C 	C 	0.87731 0.49001 0.49975 -0.09200
C 	C 	0.46137 0.46435 0.96700 -0.00800
C 	C 	0.45697 0.45162 0.84380 0.09600
C 	C 	0.60584 0.59089 0.85810 0.12000
C 	C 	0.50469 0.70086 0.52161 0.30600
C 	C 	0.61709 0.59922 0.98069 -0.10700
C 	C 	0.73954 0.49485 0.49950 0.30800
C 	C 	0.07822 0.43062 0.59748 0.14100
C 	C 	0.93312 0.43886 0.60249 0.05900
C 	C 	0.07371 0.60888 0.53872 -0.06800
C 	C 	0.05991 0.44533 0.38077 0.03100
C 	C 	0.93152 0.60638 0.52282 0.04500
C 	C 	0.12074 0.49777 0.50341 -0.07000
C 	C 	0.10894 0.43680 0.80399 0.09000
C 	C 	0.13083 0.52118 0.91111 -0.19400
C 	C 	0.89144 0.77777 0.47049 -0.09000
C 	C 	0.32851 0.91260 0.20145 -0.08900
C 	C 	0.54691 0.14723 0.15859 -0.08000
C 	C 	0.41288 0.26121 0.78881 -0.07800
C 	C 	0.07906 0.23014 0.60067 -0.06900
C 	C 	0.80625 0.67397 0.84453 -0.08100
C 	C 	0.23730 0.27633 0.12212 0.09300
C 	C 	0.91883 0.42717 0.38273 0.02800
C 	C 	0.16049 0.20945 0.18697 -0.19500
C 	C 	0.79827 0.34010 0.69916 0.07100
C 	C 	0.81355 0.24128 0.75023 -0.18400
C 	C 	0.05453 0.58585 0.25109 -0.07900
C 	C 	0.76603 0.27618 0.35513 -0.09200
C 	C 	0.51511 0.81445 0.53256 -0.07600
C 	C 	0.50977 0.18368 0.45880 -0.10600
C 	C 	0.48503 0.00961 0.33807 -0.01000
C 	C 	0.48791 0.11886 0.34808 0.07800
C 	C 	0.54487 0.13807 0.55372 -0.00700
Cu	Cu	0.50935 0.50773 0.61593 0.91400
Cu	Cu	0.49065 0.49227 0.38407 0.91600
H 	H 	0.87160 0.45482 0.30822 0.03400
H 	H 	0.91920 0.49704 0.68112 0.02900
H 	H 	0.10254 0.63951 0.63120 0.05600
H 	H 	0.89824 0.64550 0.60593 0.02300
H 	H 	0.10103 0.36795 0.36789 0.04000
H 	H 	0.16674 0.37100 0.81434 0.01300
H 	H 	0.01359 0.40776 0.80117 0.00900
H 	H 	0.06710 0.58500 0.90613 0.06900
H 	H 	0.11490 0.48731 0.98916 0.06300
H 	H 	0.22629 0.55424 0.91820 0.08200
H 	H 	0.81341 0.63715 0.38254 0.08900
H 	H 	0.11830 0.66563 0.49372 0.05200
H 	H 	0.87411 0.81518 0.39363 0.04300
H 	H 	0.98153 0.80849 0.51442 0.04200
H 	H 	0.81808 0.79848 0.53021 0.04900
H 	H 	0.51604 0.88774 0.20445 0.07400
H 	H 	0.30133 0.85630 0.25674 0.04800
H 	H 	0.31355 0.87396 0.10942 0.04400
H 	H 	0.26895 0.98024 0.21593 0.04600
H 	H 	0.37335 0.13918 0.21268 0.08400
H 	H 	0.57356 0.22399 0.13716 0.04900
H 	H 	0.50396 0.09750 0.07836 0.03900
H 	H 	0.47887 0.80625 0.35027 0.04900
H 	H 	0.63011 0.10875 0.18583 0.04100
H 	H 	0.34303 0.37480 0.69930 0.10200
H 	H 	0.51160 0.25664 0.81507 0.04400
H 	H 	0.35732 0.23216 0.85248 0.03800
H 	H 	0.38712 0.20777 0.70597 0.04600
H 	H 	0.20994 0.31922 0.53785 0.08700
H 	H 	0.15190 0.17237 0.59298 0.03600
H 	H 	0.99867 0.19306 0.54419 0.05100
H 	H 	0.05789 0.24549 0.69174 0.04700
H 	H 	0.63734 0.73014 0.80744 0.08600
H 	H 	0.55360 0.84872 0.71844 0.03500
H 	H 	0.81929 0.72254 0.93229 0.03500
H 	H 	0.85485 0.71616 0.78598 0.04300
H 	H 	0.84742 0.59745 0.84514 0.04500
H 	H 	0.29596 0.22411 0.06584 0.00400
H 	H 	0.17093 0.31262 0.06725 -0.00000
H 	H 	0.06398 0.23082 0.17919 0.06100
H 	H 	0.16226 0.12590 0.14627 0.05600
H 	H 	0.19404 0.21859 0.27948 0.08000
H 	H 	0.70275 0.33838 0.66481 0.03300
H 	H 	0.81115 0.40842 0.77077 0.01500
H 	H 	0.57941 0.03672 0.72960 0.02100
H 	H 	0.90044 0.24641 0.80531 0.05800
H 	H 	0.73749 0.23173 0.80577 0.05700
H 	H 	0.81198 0.17175 0.68019 0.06700
H 	H 	0.08839 0.43192 0.20650 0.08100
H 	H 	0.09523 0.59853 0.17067 0.04200
H 	H 	0.08772 0.65370 0.31628 0.05600
H 	H 	0.95386 0.58329 0.23296 0.04000
H 	H 	0.94047 0.26964 0.30989 0.06600
H 	H 	0.76268 0.18971 0.33335 0.04600
H 	H 	0.71569 0.30839 0.28550 0.06000
H 	H 	0.57379 0.18656 0.63552 0.03500
H 	H 	0.72377 0.29565 0.43751 0.07400
H 	H 	0.30511 0.36643 0.96959 0.05900
H 	H 	0.67974 0.65717 0.03352 0.05100
H 	H 	0.61816 0.59649 0.21207 0.02800
N 	N 	0.52343 0.51936 0.79013 -0.20800
N 	N 	0.89164 0.31451 0.36981 -0.12800
N 	N 	0.47657 0.48064 0.20988 -0.20000
N 	N 	0.89098 0.66559 0.43407 -0.14500
N 	N 	0.45633 0.94621 0.22701 -0.12900
N 	N 	0.46011 0.16223 0.24730 -0.13100
N 	N 	0.38327 0.36685 0.77749 -0.15200
N 	N 	0.12122 0.32379 0.56179 -0.14300
N 	N 	0.67744 0.65975 0.80556 -0.15200
N 	N 	0.09580 0.48847 0.27994 -0.12500
O 	O 	0.50664 0.35446 0.58200 -0.38400
O 	O 	0.31086 0.35424 0.19954 -0.22600
O 	O 	0.87436 0.34028 0.60583 -0.19800
O 	O 	0.49084 0.34141 0.38620 -0.36800
O 	O 	0.32559 0.50651 0.59790 -0.35900
O 	O 	0.30979 0.49345 0.40210 -0.34800
O 	O 	0.50916 0.65859 0.61380 -0.37700
O 	O 	0.49336 0.64554 0.41800 -0.38100
O 	O 	0.69021 0.50655 0.59790 -0.36800
O 	O 	0.67441 0.49349 0.40210 -0.37800
O 	O 	0.13914 0.47908 0.70621 -0.20900
