data_crystal

_cell_length_a 16.83985
_cell_length_b 7.00680
_cell_length_c 17.14674
_cell_angle_alpha 90.00007
_cell_angle_beta  100.88905
_cell_angle_gamma 89.99992

_symmetry_space_group_name_	'P 1'
_symmetry_space_group_name_H-M	'P 1'

loop_
_symmetry_equiv_pos_as_xyz
  x,y,z

loop_
_atom_site_label
_atom_site_type_symbol
_atom_site_fract_x
_atom_site_fract_y
_atom_site_fract_z
_atom_site_charge
O 	O 	0.57951 0.50629 0.43903 -0.47300
O 	O 	0.42049 0.00629 0.56097 -0.46000
O 	O 	0.41254 0.17009 0.40529 -0.45000
O 	O 	0.58746 0.67009 0.59471 -0.45200
C 	C 	0.38383 0.34598 0.38316 0.30500
C 	C 	0.61616 0.84598 0.61685 0.29600
O 	O 	0.57839 0.17623 0.42933 -0.47400
O 	O 	0.42161 0.67623 0.57067 -0.47200
O 	O 	0.58753 0.01125 0.58519 -0.45200
O 	O 	0.41247 0.51125 0.41481 -0.46000
C 	C 	0.60226 0.34604 0.41095 0.40000
C 	C 	0.39774 0.84605 0.58905 0.38500
O 	O 	0.50280 0.34094 0.55111 -0.62400
O 	O 	0.49720 0.84094 0.44889 -0.63000
V 	V 	0.49948 0.06402 0.49052 1.80600
V 	V 	0.50052 0.56402 0.50948 1.80400
C 	C 	0.16967 0.90072 0.86423 -0.13100
C 	C 	0.83032 0.40073 0.13576 -0.13500
C 	C 	0.33374 0.86165 0.63882 -0.12200
C 	C 	0.66626 0.36166 0.36118 -0.13400
C 	C 	0.21510 0.02993 0.66470 -0.05100
C 	C 	0.78489 0.52996 0.33529 -0.08400
C 	C 	0.26748 0.98452 0.61350 0.10500
C 	C 	0.73251 0.48454 0.38649 0.13400
C 	C 	0.34278 0.77634 0.71519 0.10500
C 	C 	0.65722 0.27632 0.28481 0.11300
C 	C 	0.28315 0.80782 0.76405 -0.02500
C 	C 	0.71685 0.30782 0.23595 -0.02800
C 	C 	0.22091 0.94420 0.73968 -0.01000
C 	C 	0.77908 0.44422 0.26031 0.00700
C 	C 	0.16296 0.98734 0.78832 0.08700
C 	C 	0.83703 0.48736 0.21168 0.09500
C 	C 	0.23375 0.76986 0.88943 0.08600
C 	C 	0.76624 0.26986 0.11057 0.09200
C 	C 	0.28352 0.70736 0.83631 0.02500
C 	C 	0.71648 0.20735 0.16369 0.02000
H 	H 	0.16769 0.13103 0.64321 0.06700
H 	H 	0.83229 0.63107 0.35678 0.07300
C 	C 	0.82663 0.72708 0.75587 0.05400
C 	C 	0.17337 0.22707 0.24413 0.05500
H 	H 	0.83268 0.59928 0.79471 0.05800
H 	H 	0.16733 0.09928 0.20529 0.06100
C 	C 	0.74836 0.69662 0.69089 -0.08700
C 	C 	0.25164 0.19662 0.30911 -0.08800
H 	H 	0.71742 0.56349 0.70419 0.07200
H 	H 	0.28258 0.06349 0.29581 0.07400
H 	H 	0.76313 0.67473 0.63205 0.09000
H 	H 	0.23687 0.17472 0.36795 0.09300
C 	C 	0.80486 0.09274 0.75294 0.03700
C 	C 	0.19513 0.59273 0.24707 0.03000
C 	C 	0.73432 0.88500 0.83868 0.01500
C 	C 	0.26568 0.38505 0.16133 0.02200
C 	C 	0.81637 0.90877 0.80779 -0.09000
C 	C 	0.18363 0.40877 0.19221 -0.08600
H 	H 	0.72835 0.01418 0.87494 0.04600
H 	H 	0.27165 0.51428 0.12509 0.03900
C 	C 	0.68895 0.86828 0.68626 -0.05100
C 	C 	0.31105 0.36828 0.31374 -0.04800
C 	C 	0.73896 0.05502 0.67609 0.01600
C 	C 	0.26104 0.55502 0.32391 0.01300
C 	C 	0.65974 0.87628 0.76782 0.00600
C 	C 	0.34026 0.37629 0.23219 0.01200
H 	H 	0.62469 0.74343 0.77242 0.06400
H 	H 	0.37529 0.24342 0.22758 0.06400
H 	H 	0.77957 0.20560 0.78703 0.03400
H 	H 	0.22041 0.70561 0.21298 0.03300
H 	H 	0.69761 0.18013 0.66966 0.04700
H 	H 	0.30238 0.68012 0.33034 0.04500
O 	O 	0.08750 0.26600 0.08522 -0.45400
O 	O 	0.91250 0.76600 0.91478 -0.45500
O 	O 	0.92160 0.58995 0.07067 -0.48600
O 	O 	0.07840 0.08995 0.92933 -0.47500
C 	C 	0.89482 0.42055 0.08618 0.39100
C 	C 	0.10517 0.92055 0.91382 0.37700
O 	O 	0.08746 0.59602 0.09471 -0.49100
O 	O 	0.91254 0.09602 0.90529 -0.48300
O 	O 	0.07952 0.76097 0.93902 -0.47500
O 	O 	0.92048 0.26097 0.06098 -0.47500
C 	C 	0.11434 0.42609 0.11959 0.36600
C 	C 	0.88566 0.92609 0.88041 0.35800
O 	O 	0.99718 0.42514 0.94891 -0.63500
O 	O 	0.00282 0.92514 0.05109 -0.64300
V 	V 	0.00052 0.70208 0.00948 1.80200
V 	V 	0.99948 0.20208 0.99052 1.80400
C 	C 	0.09338 0.12069 0.75660 -0.19600
H 	H 	0.04808 0.13291 0.79443 0.09900
H 	H 	0.11686 0.26633 0.74908 0.08700
H 	H 	0.05999 0.06659 0.69878 0.08900
C 	C 	0.90660 0.62074 0.24339 -0.20600
H 	H 	0.95191 0.63295 0.20556 0.09900
H 	H 	0.88311 0.76638 0.25089 0.08600
H 	H 	0.93999 0.56667 0.30122 0.08800
C 	C 	0.88231 0.18744 0.73486 -0.18700
H 	H 	0.91777 0.08844 0.70485 0.09100
H 	H 	0.86582 0.31365 0.69630 0.08600
H 	H 	0.92093 0.24765 0.78824 0.09300
C 	C 	0.11768 0.68739 0.26515 -0.18400
H 	H 	0.08222 0.58837 0.29516 0.08700
H 	H 	0.13415 0.81361 0.30371 0.08200
H 	H 	0.07904 0.74759 0.21177 0.09000
C 	C 	0.77260 0.05143 0.59777 -0.17200
H 	H 	0.72495 0.01636 0.54583 0.10000
H 	H 	0.79702 0.19175 0.58537 0.09000
H 	H 	0.82257 0.94868 0.60056 0.09200
C 	C 	0.22740 0.55142 0.40224 -0.18300
H 	H 	0.27505 0.51636 0.45418 0.09900
H 	H 	0.20298 0.69174 0.41463 0.09100
H 	H 	0.17743 0.44867 0.39945 0.10000
N 	N 	0.73478 0.71879 0.89151 -0.00900
O 	O 	0.72276 0.54677 0.86305 -0.13000
O 	O 	0.73753 0.74489 0.96707 -0.13000
N 	N 	0.26525 0.21890 0.10847 -0.01000
O 	O 	0.27716 0.04683 0.13691 -0.12500
O 	O 	0.26275 0.24508 0.03296 -0.12500
C 	C 	0.60014 0.04081 0.77376 -0.16400
H 	H 	0.62871 0.18257 0.77090 0.08100
H 	H 	0.54574 0.03065 0.72603 0.09800
H 	H 	0.57952 0.03209 0.83148 0.08800
C 	C 	0.39987 0.54080 0.22626 -0.17100
H 	H 	0.37132 0.68256 0.22913 0.08000
H 	H 	0.45428 0.53060 0.27398 0.09600
H 	H 	0.42049 0.53209 0.16854 0.08600
C 	C 	0.24900 0.69448 0.97377 -0.19700
H 	H 	0.23677 0.80621 0.01577 0.09300
H 	H 	0.20939 0.56990 0.97765 0.09800
H 	H 	0.31312 0.65202 0.99387 0.08500
C 	C 	0.75100 0.19448 0.02622 -0.20200
H 	H 	0.76322 0.30622 0.98422 0.09800
H 	H 	0.79062 0.06992 0.02234 0.10200
H 	H 	0.68688 0.15200 0.00613 0.08800
C 	C 	0.32556 0.51565 0.85203 -0.17700
H 	H 	0.32754 0.43926 0.79579 0.09500
H 	H 	0.38723 0.53373 0.88777 0.09400
H 	H 	0.29109 0.41860 0.88455 0.08300
C 	C 	0.67444 0.01564 0.14797 -0.14800
H 	H 	0.67248 0.93924 0.20421 0.08100
H 	H 	0.61277 0.03372 0.11224 0.09000
H 	H 	0.70891 0.91860 0.11543 0.06900
N 	N 	0.25198 0.06487 0.53501 -0.00900
O 	O 	0.26969 0.96865 0.47590 -0.13500
O 	O 	0.21021 0.22124 0.52041 -0.11600
N 	N 	0.74802 0.56489 0.46498 -0.02200
O 	O 	0.73032 0.46867 0.52410 -0.12500
O 	O 	0.78978 0.72129 0.47957 -0.12000
N 	N 	0.41808 0.68471 0.74752 -0.02600
O 	O 	0.43938 0.52788 0.71643 -0.10100
O 	O 	0.46452 0.75563 0.81006 -0.12300
N 	N 	0.58193 0.18466 0.25248 -0.02700
O 	O 	0.56065 0.02781 0.28358 -0.09700
O 	O 	0.53547 0.25557 0.18995 -0.12000
N 	N 	0.90165 0.73172 0.72297 -0.02300
O 	O 	0.90323 0.66536 0.65238 -0.12000
O 	O 	0.97069 0.75493 0.77081 -0.11700
N 	N 	0.09834 0.23169 0.27702 -0.02200
O 	O 	0.09677 0.16543 0.34763 -0.11600
O 	O 	0.02931 0.25481 0.22917 -0.11300
