data_crystal

_cell_length_a 10.79936
_cell_length_b 14.84090
_cell_length_c 14.66053
_cell_angle_alpha 64.61390
_cell_angle_beta  105.94246
_cell_angle_gamma 102.49998

_symmetry_space_group_name_	'P 1'
_symmetry_space_group_name_H-M	'P 1'

loop_
_symmetry_equiv_pos_as_xyz
  x,y,z

loop_
_atom_site_label
_atom_site_type_symbol
_atom_site_fract_x
_atom_site_fract_y
_atom_site_fract_z
_atom_site_charge
O 	O 	0.45554 0.02209 0.33812 -0.38400
O 	O 	0.54446 0.97791 0.66188 -0.38800
O 	O 	0.51251 0.16015 0.37918 -0.36000
O 	O 	0.48749 0.83985 0.62082 -0.37700
C 	C 	0.47739 0.11906 0.31070 0.30500
C 	C 	0.52342 0.88080 0.68919 0.30700
O 	O 	0.29116 0.93097 0.47948 -0.37000
O 	O 	0.70884 0.06903 0.52052 -0.37000
O 	O 	0.34813 0.06902 0.52054 -0.36800
O 	O 	0.65187 0.93098 0.47946 -0.36200
C 	C 	0.26316 0.99909 0.50201 0.31200
C 	C 	0.73669 0.00123 0.49743 0.31300
Cu	Cu	0.46627 0.91826 0.47569 0.92500
Cu	Cu	0.53373 0.08174 0.52431 0.92600
H 	H 	0.43998 0.07045 0.90065 0.05300
H 	H 	0.57881 0.97518 0.07161 0.05000
C 	C 	0.34367 0.96732 0.82881 -0.01500
C 	C 	0.68373 0.06597 0.15591 -0.01200
H 	H 	0.39024 0.90406 0.88978 0.04500
H 	H 	0.65266 0.13544 0.09472 0.05400
C 	C 	0.25640 0.95512 0.74383 -0.03300
C 	C 	0.76462 0.06677 0.24800 -0.03100
H 	H 	0.23637 0.88195 0.73995 0.05300
H 	H 	0.79587 0.13753 0.25693 0.05500
C 	C 	0.19337 0.03614 0.66520 0.01400
C 	C 	0.80833 0.97753 0.32695 0.01400
C 	C 	0.21944 0.13114 0.67230 -0.01200
C 	C 	0.76779 0.88582 0.31331 -0.00800
C 	C 	0.31031 0.14244 0.75738 -0.01400
C 	C 	0.68239 0.88605 0.22135 -0.01500
H 	H 	0.33366 0.21426 0.76426 0.06600
H 	H 	0.64819 0.81705 0.20929 0.06500
C 	C 	0.37132 0.06094 0.83518 -0.02100
C 	C 	0.64248 0.97576 0.14272 -0.02300
C 	C 	0.96604 0.01747 0.57552 -0.01700
C 	C 	0.03364 0.98218 0.42422 -0.01500
H 	H 	0.93949 0.02849 0.63574 0.06200
H 	H 	0.06032 0.97142 0.36385 0.06200
C 	C 	0.87025 0.00133 0.49621 -0.07000
C 	C 	0.12952 0.99885 0.50329 -0.07700
C 	C 	0.90379 0.98411 0.41906 0.03300
C 	C 	0.09613 0.01832 0.57913 0.03500
C 	C 	0.46005 0.18501 0.19875 -0.07300
C 	C 	0.54797 0.81344 0.80058 -0.08800
C 	C 	0.36754 0.22357 0.01666 -0.05100
C 	C 	0.67546 0.76755 0.97512 -0.08000
C 	C 	0.39613 0.15206 0.11781 0.03400
C 	C 	0.63134 0.84223 0.87919 0.04400
C 	C 	0.50526 0.28682 0.17274 0.00300
C 	C 	0.49719 0.71281 0.82578 0.00400
C 	C 	0.48311 0.35806 0.07029 -0.01000
C 	C 	0.53854 0.63675 0.92270 -0.01900
C 	C 	0.40203 0.32667 0.99290 0.05600
C 	C 	0.63210 0.66520 0.99820 0.06900
C 	C 	0.53605 0.46026 0.04435 0.01600
C 	C 	0.49217 0.53322 0.94511 0.00900
C 	C 	0.40455 0.50000 0.87128 -0.01200
C 	C 	0.63595 0.49020 0.11407 -0.00200
C 	C 	0.36027 0.39875 0.89323 -0.07500
C 	C 	0.68299 0.59047 0.09351 -0.07200
H 	H 	0.42630 0.69645 0.76588 0.04800
H 	H 	0.55306 0.31029 0.23502 0.06300
H 	H 	0.32120 0.19730 0.95578 0.07800
H 	H 	0.74486 0.79124 0.03132 0.09000
H 	H 	0.36763 0.55080 0.79442 0.05100
H 	H 	0.68273 0.43576 0.18539 0.05500
N 	N 	0.58445 0.20457 0.56079 -0.18700
N 	N 	0.41555 0.79543 0.43921 -0.18700
C 	C 	0.69527 0.27333 0.68871 -0.09000
C 	C 	0.30908 0.72636 0.31104 -0.09100
C 	C 	0.68482 0.20464 0.64229 0.07800
C 	C 	0.31796 0.79595 0.35601 0.07800
C 	C 	0.51599 0.28719 0.50674 0.05400
C 	C 	0.48271 0.71216 0.49532 0.05300
C 	C 	0.54353 0.36872 0.53948 -0.03100
C 	C 	0.45884 0.63076 0.46256 -0.01800
C 	C 	0.61112 0.34915 0.64171 0.07700
C 	C 	0.39332 0.65032 0.35971 0.06400
C 	C 	0.50074 0.46625 0.47788 0.02900
C 	C 	0.50221 0.53313 0.52476 0.02600
C 	C 	0.53545 0.49635 0.63301 -0.01800
C 	C 	0.47068 0.50313 0.36988 -0.02300
C 	C 	0.59110 0.40665 0.69186 -0.02900
C 	C 	0.41529 0.59303 0.31008 -0.01800
H 	H 	0.51204 0.53418 0.67361 0.05200
H 	H 	0.49733 0.46490 0.33117 0.07600
C 	C 	0.60944 0.37036 0.80558 0.12900
H 	H 	0.62959 0.42400 0.84145 0.02000
O 	O 	0.59471 0.28088 0.85947 -0.19200
C 	C 	0.39874 0.63220 0.19606 0.12500
H 	H 	0.39482 0.71181 0.14960 0.02300
O 	O 	0.39100 0.57620 0.15281 -0.17400
C 	C 	0.59201 0.71264 0.58166 0.07400
H 	H 	0.57462 0.69585 0.65680 0.03800
O 	O 	0.70349 0.72391 0.57204 -0.15700
C 	C 	0.39268 0.28031 0.43353 0.07500
H 	H 	0.30308 0.25576 0.46091 0.04500
O 	O 	0.38856 0.30511 0.34210 -0.16000
C 	C 	0.21754 0.86505 0.31706 0.07800
H 	H 	0.24276 0.94325 0.30397 0.04000
O 	O 	0.10274 0.83395 0.30065 -0.15900
C 	C 	0.78547 0.13633 0.67897 0.07800
H 	H 	0.76036 0.05810 0.69241 0.04000
O 	O 	0.90020 0.16804 0.69349 -0.15800
C 	C 	0.80119 0.27241 0.77901 0.30800
O 	O 	0.82566 0.19327 0.85197 -0.20900
O 	O 	0.87136 0.36287 0.78082 -0.29300
H 	H 	0.93773 0.35323 0.84740 0.17900
C 	C 	0.20387 0.72650 0.22064 0.29400
O 	O 	0.14147 0.64738 0.22013 -0.20800
O 	O 	0.17689 0.81641 0.13617 -0.28500
H 	H 	0.10328 0.80631 0.07996 0.17600
C 	C 	0.15371 0.21858 0.59166 0.10900
H 	H 	0.08276 0.21137 0.52593 0.03300
O 	O 	0.17936 0.30079 0.59664 -0.16300
C 	C 	0.81430 0.79032 0.39342 0.12100
H 	H 	0.89380 0.79042 0.45741 0.03900
O 	O 	0.76253 0.70967 0.39027 -0.16900
C 	C 	0.26387 0.37291 0.81095 0.28600
O 	O 	0.27355 0.41907 0.72081 -0.22300
O 	O 	0.15865 0.29973 0.83538 -0.29800
H 	H 	0.10010 0.28984 0.77248 0.19100
C 	C 	0.78941 0.61176 0.17340 0.28800
O 	O 	0.87877 0.55969 0.21476 -0.20800
O 	O 	0.78532 0.68689 0.20546 -0.30100
H 	H 	0.86632 0.69543 0.25724 0.19000
C 	C 	0.67187 0.94823 0.86674 0.07900
H 	H 	0.61061 0.00632 0.81474 0.04200
O 	O 	0.77338 0.97170 0.91787 -0.15600
C 	C 	0.35816 0.04519 0.13297 0.09100
H 	H 	0.41372 0.98669 0.19281 0.03700
O 	O 	0.26519 0.02138 0.07498 -0.15500
