data_crystal

_cell_length_a 20.05701
_cell_length_b 7.25839
_cell_length_c 13.67811
_cell_angle_alpha 89.99954
_cell_angle_beta  102.83552
_cell_angle_gamma 90.00222

_symmetry_space_group_name_	'P 1'
_symmetry_space_group_name_H-M	'P 1'

loop_
_symmetry_equiv_pos_as_xyz
  x,y,z

loop_
_atom_site_label
_atom_site_type_symbol
_atom_site_fract_x
_atom_site_fract_y
_atom_site_fract_z
_atom_site_charge
O 	O 	0.44956 0.50681 0.59970 -0.45900
O 	O 	0.55044 0.00681 0.40030 -0.47900
O 	O 	0.58796 0.18006 0.59576 -0.49000
O 	O 	0.41204 0.68006 0.40424 -0.48900
C 	C 	0.61497 0.34468 0.61675 0.36100
C 	C 	0.38503 0.84467 0.38324 0.38400
O 	O 	0.45238 0.17743 0.61170 -0.47500
O 	O 	0.54762 0.67743 0.38830 -0.47400
O 	O 	0.41390 0.00189 0.41635 -0.49900
O 	O 	0.58610 0.50189 0.58365 -0.48000
C 	C 	0.43654 0.34484 0.63773 0.33600
C 	C 	0.56346 0.84484 0.36227 0.35600
O 	O 	0.48753 0.33749 0.43589 -0.60400
O 	O 	0.51247 0.83749 0.56411 -0.59300
V 	V 	0.50231 0.06466 0.51189 1.78700
V 	V 	0.49769 0.56466 0.48811 1.79100
C 	C 	0.61651 0.70617 0.12890 -0.06200
C 	C 	0.38348 0.20614 0.87110 -0.06100
H 	H 	0.52115 0.72040 0.17403 0.03900
H 	H 	0.47884 0.22032 0.82597 0.03600
H 	H 	0.70591 0.60411 0.02363 0.05400
H 	H 	0.29407 0.10408 0.97637 0.05000
H 	H 	0.59373 0.63681 0.05931 0.05700
H 	H 	0.40626 0.13674 0.94068 0.05300
C 	C 	0.60297 0.84251 0.28451 -0.08600
C 	C 	0.39703 0.34250 0.71550 -0.08200
C 	C 	0.92934 0.94946 0.30927 0.01600
C 	C 	0.07068 0.44952 0.69074 0.02400
C 	C 	0.89233 0.98323 0.38194 -0.01700
C 	C 	0.10768 0.48333 0.61808 -0.04400
C 	C 	0.82282 0.94282 0.36334 -0.03200
C 	C 	0.17719 0.44290 0.63669 -0.02100
C 	C 	0.78887 0.86124 0.27172 0.00000
C 	C 	0.21113 0.36129 0.72830 -0.00700
C 	C 	0.82855 0.81280 0.20087 0.06600
C 	C 	0.17145 0.31281 0.79913 0.06800
C 	C 	0.71677 0.82922 0.24718 -0.00800
C 	C 	0.28323 0.32924 0.75284 -0.00500
C 	C 	0.68710 0.73844 0.15571 0.04300
C 	C 	0.31290 0.23843 0.84430 0.03900
C 	C 	0.72803 0.67797 0.09206 -0.02900
C 	C 	0.27196 0.17795 0.90794 -0.02800
C 	C 	0.79735 0.71724 0.11319 -0.03700
C 	C 	0.20264 0.21719 0.88680 -0.04100
C 	C 	0.67293 0.88249 0.31037 0.00800
C 	C 	0.32708 0.38252 0.68965 0.00300
C 	C 	0.57493 0.75639 0.19325 0.02900
C 	C 	0.42507 0.25634 0.80675 0.02400
C 	C 	0.89821 0.86602 0.21834 -0.09400
C 	C 	0.10179 0.36604 0.78166 -0.09700
H 	H 	0.69181 0.94605 0.38238 0.04200
H 	H 	0.30820 0.44611 0.61764 0.04000
H 	H 	0.98241 0.99202 0.32319 0.04300
H 	H 	0.01760 0.49208 0.67683 0.03700
H 	H 	0.79730 0.97708 0.42235 0.04700
H 	H 	0.20272 0.47720 0.57768 0.04000
H 	H 	0.91724 0.04695 0.45215 0.02700
H 	H 	0.08278 0.54708 0.54788 0.04700
H 	H 	0.82592 0.67204 0.05938 0.07400
H 	H 	0.17407 0.17191 0.94058 0.07200
C 	C 	0.20538 0.99598 0.25450 -0.00400
C 	C 	0.79454 0.49630 0.74573 -0.02100
H 	H 	0.17024 0.10531 0.26256 0.04300
H 	H 	0.82961 0.60594 0.73785 0.05900
C 	C 	0.27031 0.99464 0.31908 0.03000
C 	C 	0.72961 0.49498 0.68116 0.00900
H 	H 	0.28360 0.10261 0.37466 0.02700
H 	H 	0.71625 0.60326 0.62576 0.04300
C 	C 	0.31675 0.85246 0.31383 -0.10000
C 	C 	0.68325 0.35246 0.68616 -0.09100
C 	C 	0.29786 0.71575 0.24092 0.02400
C 	C 	0.70222 0.21535 0.75882 0.01600
H 	H 	0.33428 0.60851 0.23526 0.04500
H 	H 	0.66587 0.10783 0.76429 0.04200
C 	C 	0.23421 0.71923 0.17286 -0.03500
C 	C 	0.76587 0.21877 0.82688 -0.03300
C 	C 	0.18557 0.85774 0.18131 -0.04300
C 	C 	0.81443 0.35768 0.81869 -0.04000
O 	O 	0.91392 0.20337 0.91626 -0.45400
O 	O 	0.08608 0.70337 0.08374 -0.45200
O 	O 	0.04762 0.53554 0.88829 -0.45400
O 	O 	0.95238 0.03554 0.11171 -0.47200
C 	C 	0.06392 0.36855 0.86228 0.35500
C 	C 	0.93608 0.86854 0.13772 0.37000
O 	O 	0.91204 0.53278 0.90422 -0.46300
O 	O 	0.08796 0.03278 0.09578 -0.48000
O 	O 	0.94955 0.70816 0.09972 -0.46300
O 	O 	0.05045 0.20816 0.90028 -0.46300
C 	C 	0.88466 0.36468 0.88495 0.32200
C 	C 	0.11534 0.86469 0.11506 0.34100
O 	O 	0.01248 0.37530 0.06406 -0.59400
O 	O 	0.98752 0.87530 0.93594 -0.58600
V 	V 	0.99769 0.64818 0.98811 1.79100
V 	V 	0.00231 0.14818 0.01189 1.79000
S 	S 	0.22167 0.55731 0.07408 0.35800
O 	O 	0.17452 0.40747 0.09353 -0.21400
O 	O 	0.19084 0.65059 0.97643 -0.18900
O 	O 	0.29706 0.46426 0.06588 -0.28700
H 	H 	0.30386 0.35866 0.11296 0.15200
S 	S 	0.77846 0.05623 0.92538 0.32400
O 	O 	0.82586 0.90705 0.90588 -0.19400
O 	O 	0.80904 0.14921 0.02324 -0.19400
O 	O 	0.70313 0.96221 0.93317 -0.27000
H 	H 	0.69655 0.85683 0.88595 0.15500
