data_crystal

_cell_length_a 6.94095
_cell_length_b 13.64721
_cell_length_c 20.40274
_cell_angle_alpha 102.13139
_cell_angle_beta  90.44199
_cell_angle_gamma 90.33088

_symmetry_space_group_name_	'P 1'
_symmetry_space_group_name_H-M	'P 1'

loop_
_symmetry_equiv_pos_as_xyz
  x,y,z

loop_
_atom_site_label
_atom_site_type_symbol
_atom_site_fract_x
_atom_site_fract_y
_atom_site_fract_z
_atom_site_charge
O 	O 	0.50686 0.59939 0.44924 -0.48500
O 	O 	0.18022 0.59460 0.58678 -0.48200
O 	O 	0.00450 0.40061 0.55076 -0.47800
C 	C 	0.34906 0.61241 0.61461 0.32500
O 	O 	0.17749 0.61129 0.45197 -0.49100
O 	O 	0.00175 0.41742 0.41499 -0.49000
C 	C 	0.34585 0.63798 0.43517 0.38300
O 	O 	0.50961 0.58258 0.58501 -0.47700
O 	O 	0.33742 0.43637 0.48802 -0.64300
V 	V 	0.06468 0.51180 0.50222 1.80700
O 	O 	0.67171 0.40540 0.41322 -0.50000
C 	C 	0.83960 0.38349 0.38671 0.40100
O 	O 	0.67444 0.38871 0.54803 -0.48800
C 	C 	0.84340 0.36258 0.56507 0.37900
V 	V 	0.56401 0.48820 0.49778 1.80600
O 	O 	0.84114 0.56363 0.51198 -0.65100
C 	C 	0.87671 0.11240 0.61201 -0.02500
H 	H 	0.87675 0.16342 0.51958 0.03400
H 	H 	0.88975 0.03491 0.58608 0.04400
C 	C 	0.85272 0.28582 0.60503 -0.08800
C 	C 	0.85520 0.31596 0.92967 0.21300
C 	C 	0.83965 0.39153 0.89289 -0.13500
C 	C 	0.83872 0.36823 0.82309 0.03300
C 	C 	0.85019 0.26779 0.78698 -0.06800
C 	C 	0.85896 0.19054 0.82414 0.13700
C 	C 	0.85367 0.24165 0.71533 0.03800
C 	C 	0.86593 0.13892 0.68245 -0.05000
C 	C 	0.86581 0.06367 0.72009 0.15100
C 	C 	0.86607 0.08968 0.78981 -0.14700
C 	C 	0.84609 0.31408 0.67489 -0.01200
C 	C 	0.86972 0.18535 0.57371 0.00900
C 	C 	0.86002 0.21551 0.89526 -0.19600
H 	H 	0.83498 0.39316 0.69573 0.04000
H 	H 	0.82784 0.43113 0.79913 0.02700
H 	H 	0.82634 0.46918 0.91827 0.07400
H 	H 	0.87112 0.02924 0.81670 0.08400
C 	C 	0.00525 0.28852 0.28542 0.01500
C 	C 	0.84207 0.31415 0.32026 -0.17400
H 	H 	0.14211 0.31838 0.30724 0.04200
H 	H 	0.70377 0.28468 0.30013 0.08800
C 	C 	0.01414 0.22035 0.21787 0.01700
C 	C 	0.85909 0.18397 0.18014 -0.17500
H 	H 	0.15714 0.20052 0.19844 0.03800
H 	H 	0.71495 0.20363 0.19790 0.09000
C 	C 	0.20669 0.78951 0.78194 0.08200
C 	C 	0.36514 0.82499 0.81739 -0.19500
H 	H 	0.06553 0.80880 0.80324 0.03300
H 	H 	0.50575 0.81269 0.79463 0.11500
C 	C 	0.21419 0.73054 0.71162 -0.07700
C 	C 	0.35974 0.66901 0.68549 0.05200
H 	H 	0.08887 0.73653 0.68062 0.06600
C 	C 	0.31141 0.88782 0.38697 -0.06300
H 	H 	0.30765 0.83763 0.47981 0.02900
H 	H 	0.27001 0.00982 0.30258 0.03100
H 	H 	0.28406 0.96489 0.41147 0.05300
C 	C 	0.35219 0.71539 0.39538 -0.10300
C 	C 	0.41248 0.68712 0.07241 -0.03400
C 	C 	0.46474 0.61527 0.10901 0.09100
C 	C 	0.46804 0.64088 0.17926 0.08100
C 	C 	0.39283 0.73462 0.21391 -0.05100
C 	C 	0.35236 0.80878 0.17585 0.07000
C 	C 	0.36771 0.75963 0.28514 0.01200
C 	C 	0.32866 0.86052 0.31696 0.01900
C 	C 	0.30180 0.93296 0.27871 -0.01800
C 	C 	0.30855 0.90715 0.20927 -0.06200
C 	C 	0.37022 0.68737 0.32574 -0.00100
C 	C 	0.32450 0.81571 0.42597 0.02800
C 	C 	0.36549 0.78438 0.10508 -0.10300
H 	H 	0.37336 0.60813 0.30451 0.04900
H 	H 	0.42186 0.66933 0.01819 0.04700
H 	H 	0.28099 0.96571 0.18201 0.06200
O 	O 	0.20323 0.91731 0.91502 -0.48600
O 	O 	0.53550 0.88869 0.04804 -0.48500
O 	O 	0.71108 0.08261 0.08500 -0.49500
C 	C 	0.36747 0.86228 0.06516 0.38400
O 	O 	0.53263 0.90537 0.91323 -0.49800
O 	O 	0.70819 0.09941 0.94923 -0.48100
C 	C 	0.36431 0.88615 0.88606 0.42100
O 	O 	0.20612 0.90051 0.05079 -0.47500
O 	O 	0.37536 0.06357 0.01199 -0.65100
V 	V 	0.64817 0.98820 0.99778 1.81400
O 	O 	0.03824 0.11139 0.95194 -0.48700
C 	C 	0.86931 0.13736 0.93477 0.42800
O 	O 	0.04112 0.09471 0.08675 -0.50400
C 	C 	0.87278 0.11597 0.11346 0.40600
V 	V 	0.14881 0.01193 0.00218 1.80000
O 	O 	0.87175 0.93643 0.98801 -0.63700
O 	O 	0.51165 0.65314 0.72627 -0.26000
H 	H 	0.59664 0.60068 0.70098 0.15200
O 	O 	0.87356 0.96345 0.68897 -0.22300
C 	C 	0.68350 0.92804 0.67328 0.08900
H 	H 	0.59923 0.97875 0.64771 0.01900
H 	H 	0.60710 0.92050 0.71969 0.02200
C 	C 	0.69041 0.82601 0.62591 -0.19500
H 	H 	0.75423 0.76999 0.65186 0.09200
H 	H 	0.54226 0.80168 0.60880 0.08100
H 	H 	0.77823 0.83040 0.58132 0.08800
O 	O 	0.56220 0.57662 0.21260 -0.20100
C 	C 	0.75469 0.61042 0.22503 0.08600
H 	H 	0.76250 0.69098 0.25081 0.02200
H 	H 	0.83562 0.59981 0.17716 0.02300
C 	C 	0.85225 0.55008 0.27033 -0.19700
H 	H 	0.84647 0.46923 0.24656 0.08300
H 	H 	0.00524 0.57379 0.27874 0.07700
H 	H 	0.77823 0.56233 0.31942 0.08900
O 	O 	0.52642 0.52117 0.07762 -0.26100
H 	H 	0.51706 0.51471 0.02837 0.14200
O 	O 	0.84926 0.33698 0.99929 -0.21400
C 	C 	0.98729 0.41095 0.02718 0.07100
H 	H 	0.92743 0.48686 0.02910 0.02300
H 	H 	0.12476 0.40274 0.99857 0.03400
C 	C 	0.03333 0.40117 0.09850 -0.18700
H 	H 	0.10409 0.32823 0.09800 0.09000
H 	H 	0.13157 0.46283 0.12294 0.07900
H 	H 	0.89847 0.40501 0.12777 0.08900
