data_crystal

_cell_length_a 19.63622
_cell_length_b 11.40943
_cell_length_c 18.70318
_cell_angle_alpha 89.84957
_cell_angle_beta  90.31057
_cell_angle_gamma 89.98699

_symmetry_space_group_name_	'P 1'
_symmetry_space_group_name_H-M	'P 1'

loop_
_symmetry_equiv_pos_as_xyz
  x,y,z

loop_
_atom_site_label
_atom_site_type_symbol
_atom_site_fract_x
_atom_site_fract_y
_atom_site_fract_z
_atom_site_charge
C 	C 	0.76133 0.52327 0.63901 0.34600
C 	C 	0.25333 0.05592 0.56271 -0.04800
C 	C 	0.73937 0.03407 0.15150 0.39100
C 	C 	0.77438 0.13348 0.85913 0.33300
C 	C 	0.22562 0.13368 0.14089 0.33100
C 	C 	0.27461 0.63450 0.85952 0.32700
C 	C 	0.72532 0.63454 0.14053 0.32500
C 	C 	0.96862 0.35368 0.85370 0.33600
C 	C 	0.03146 0.35379 0.14618 0.33800
C 	C 	0.46793 0.85365 0.85428 0.33200
C 	C 	0.53063 0.85377 0.14681 0.33100
C 	C 	0.69184 0.14582 0.46247 -0.05100
C 	C 	0.24742 0.55989 0.43590 -0.05800
C 	C 	0.31482 0.12696 0.53328 -0.04900
C 	C 	0.19184 0.64582 0.46247 -0.05200
C 	C 	0.81482 0.62696 0.53328 -0.05100
C 	C 	0.69385 0.15023 0.54442 -0.05500
C 	C 	0.31302 0.12989 0.45121 -0.05700
C 	C 	0.19385 0.65023 0.54442 -0.05000
C 	C 	0.81302 0.62989 0.45121 -0.05200
C 	C 	0.74486 0.94508 0.48081 -0.08100
C 	C 	0.24010 0.94001 0.52001 -0.07000
C 	C 	0.24486 0.44508 0.48081 -0.06200
C 	C 	0.75333 0.55592 0.56271 -0.06100
C 	C 	0.74010 0.44001 0.52001 -0.05200
C 	C 	0.76051 0.09266 0.57360 -0.03800
C 	C 	0.24197 0.08809 0.42460 -0.03100
C 	C 	0.26051 0.59266 0.57360 -0.06200
C 	C 	0.74196 0.58809 0.42460 -0.05600
C 	C 	0.75303 0.96191 0.56183 -0.07000
C 	C 	0.23728 0.95761 0.43883 -0.07500
C 	C 	0.25303 0.46192 0.56183 -0.04700
C 	C 	0.23918 0.52537 0.36007 0.34300
C 	C 	0.73728 0.45761 0.43883 -0.05200
C 	C 	0.82455 0.13043 0.53026 -0.05700
C 	C 	0.18624 0.15046 0.46844 -0.06600
C 	C 	0.32455 0.63042 0.53026 -0.05200
C 	C 	0.68624 0.65046 0.46844 -0.06200
C 	C 	0.99388 0.20577 0.45697 -0.04200
C 	C 	0.99279 0.20578 0.53965 -0.05200
C 	C 	0.49388 0.70576 0.45697 -0.05100
C 	C 	0.49279 0.70578 0.53965 -0.05600
C 	C 	0.06800 0.38458 0.47395 -0.06000
C 	C 	0.26133 0.02328 0.63901 0.37300
C 	C 	0.93628 0.41014 0.52535 -0.05700
C 	C 	0.56800 0.88458 0.47395 -0.06000
C 	C 	0.43628 0.91013 0.52535 -0.09100
C 	C 	0.94524 0.40420 0.44442 -0.04500
C 	C 	0.05747 0.38764 0.55507 -0.05400
C 	C 	0.44524 0.90420 0.44441 -0.04000
C 	C 	0.55747 0.88764 0.55507 -0.05200
C 	C 	0.00835 0.33202 0.42992 -0.06300
C 	C 	0.98829 0.33346 0.56849 -0.05100
C 	C 	0.50835 0.83202 0.42992 -0.05800
C 	C 	0.73918 0.02537 0.36007 0.37000
C 	C 	0.48829 0.83346 0.56849 -0.04900
C 	C 	0.81864 0.03280 0.04802 -0.00200
C 	C 	0.18698 0.01254 0.95499 -0.00000
C 	C 	0.32030 0.53663 0.04976 -0.03200
C 	C 	0.68162 0.53121 0.95220 -0.03300
C 	C 	0.77434 0.12220 0.64910 0.34300
C 	C 	0.22716 0.11874 0.34925 0.33900
C 	C 	0.27434 0.62220 0.64910 0.34600
C 	C 	0.72716 0.61874 0.34925 0.34200
C 	C 	0.81893 0.02972 0.96755 -0.04600
C 	C 	0.81575 0.11761 0.44939 -0.05000
C 	C 	0.18322 0.02483 0.03459 -0.04700
C 	C 	0.32373 0.54680 0.96981 -0.07000
C 	C 	0.68095 0.53049 0.03273 -0.07100
C 	C 	0.69158 0.00932 0.03008 -0.01300
C 	C 	0.31688 0.02979 0.96995 -0.00600
C 	C 	0.19471 0.50911 0.03127 -0.04400
C 	C 	0.80824 0.50938 0.97037 -0.04600
C 	C 	0.73862 0.20242 0.06073 0.06700
C 	C 	0.24422 0.20038 0.93623 0.06600
C 	C 	0.24142 0.70524 0.06185 0.06000
C 	C 	0.19124 0.13222 0.54967 -0.04500
C 	C 	0.76079 0.70196 0.93800 0.06400
C 	C 	0.74670 0.07126 0.07537 -0.11000
C 	C 	0.25330 0.06866 0.92511 -0.11300
C 	C 	0.24878 0.57395 0.07636 -0.09100
C 	C 	0.75322 0.57053 0.92455 -0.09300
C 	C 	0.75978 0.10540 0.93627 -0.04500
C 	C 	0.24019 0.10550 0.06372 -0.04400
C 	C 	0.26041 0.60846 0.93712 -0.03700
C 	C 	0.73996 0.60664 0.06336 -0.03600
C 	C 	0.69401 0.03891 0.94913 -0.03300
C 	C 	0.31575 0.61761 0.44939 -0.05100
C 	C 	0.30757 0.04363 0.05158 -0.03800
C 	C 	0.20122 0.52547 0.94931 -0.06300
C 	C 	0.80616 0.54106 0.05088 -0.06000
C 	C 	0.75400 0.21963 0.98005 -0.10100
C 	C 	0.24153 0.21931 0.01853 -0.10100
C 	C 	0.24132 0.72248 0.97906 -0.09300
C 	C 	0.74536 0.72048 0.01847 -0.10100
C 	C 	0.99857 0.48111 0.04073 -0.04000
C 	C 	0.99948 0.48143 0.95943 -0.04900
C 	C 	0.49657 0.98062 0.04179 -0.09900
C 	C 	0.69124 0.63221 0.54967 -0.04600
C 	C 	0.49428 0.98056 0.96081 -0.10100
C 	C 	0.06754 0.29466 0.02662 -0.05800
C 	C 	0.93364 0.29001 0.97276 -0.06500
C 	C 	0.56730 0.79474 0.02783 -0.06300
C 	C 	0.43780 0.77482 0.97345 -0.05700
C 	C 	0.94613 0.28403 0.05418 -0.04300
C 	C 	0.05506 0.28756 0.94532 -0.05600
C 	C 	0.44497 0.78446 0.05531 -0.05500
C 	C 	0.55853 0.79947 0.94543 -0.05400
C 	C 	0.96830 0.34238 0.64468 0.33400
C 	C 	0.74742 0.05989 0.43590 -0.04400
C 	C 	0.02970 0.34187 0.35405 0.33300
C 	C 	0.46830 0.84238 0.64468 0.33200
C 	C 	0.52970 0.84187 0.35405 0.33300
C 	C 	0.01008 0.35383 0.06945 -0.06500
C 	C 	0.98978 0.35365 0.93035 -0.04900
C 	C 	0.50921 0.85398 0.07022 -0.04600
C 	C 	0.48900 0.85327 0.93114 -0.04700
C 	C 	0.76074 0.53334 0.84863 0.35400
C 	C 	0.24019 0.53596 0.15240 0.35200
C 	C 	0.26112 0.03178 0.84921 0.39300
Cr	Cr	0.88569 0.49286 0.74531 1.51100
Cr	Cr	0.11188 0.17859 0.24699 1.51200
Cr	Cr	0.38812 0.67859 0.75301 1.51100
Cr	Cr	0.61188 0.67859 0.24699 1.51100
Cr	Cr	0.11431 0.49286 0.25469 1.51100
Cr	Cr	0.38569 0.99286 0.74531 1.50200
Cr	Cr	0.61431 0.99286 0.25469 1.50200
Cr	Cr	0.72988 0.33227 0.74819 1.51100
Cr	Cr	0.27012 0.33227 0.25181 1.51100
Cr	Cr	0.22988 0.83227 0.74819 1.50900
Cr	Cr	0.77012 0.83227 0.25181 1.50900
Cr	Cr	0.88812 0.17859 0.75301 1.51300
H 	H 	0.64007 0.12357 0.44416 0.04200
H 	H 	0.18835 0.91068 0.53478 0.03700
H 	H 	0.54119 0.02278 0.94017 0.06200
H 	H 	0.61186 0.84021 0.04494 0.03300
H 	H 	0.38501 0.78478 0.95556 0.03500
H 	H 	0.10947 0.35152 0.03556 0.03700
H 	H 	0.88930 0.34076 0.96161 0.03700
H 	H 	0.59965 0.85056 0.91992 0.02700
H 	H 	0.39976 0.82732 0.07895 0.02900
H 	H 	0.09760 0.32848 0.91543 0.03200
H 	H 	0.90190 0.31967 0.08388 0.03000
H 	H 	0.95429 0.19172 0.07130 0.03600
H 	H 	0.28309 0.38161 0.46229 0.04200
H 	H 	0.05051 0.19460 0.92818 0.03500
H 	H 	0.45046 0.69617 0.07969 0.03300
H 	H 	0.56009 0.71058 0.92203 0.03200
H 	H 	0.92766 0.20080 0.95219 0.04500
H 	H 	0.07767 0.20669 0.04789 0.04200
H 	H 	0.45361 0.68446 0.96044 0.03800
H 	H 	0.57070 0.70257 0.04434 0.04200
H 	H 	0.64906 0.10291 0.56590 0.04200
H 	H 	0.35236 0.07210 0.42909 0.04400
H 	H 	0.14906 0.60292 0.56590 0.03000
H 	H 	0.68835 0.41067 0.53478 0.04000
H 	H 	0.85236 0.57209 0.42909 0.03200
H 	H 	0.69445 0.91436 0.47230 0.03800
H 	H 	0.27610 0.87039 0.53438 0.03600
H 	H 	0.19445 0.41436 0.47230 0.03900
H 	H 	0.77611 0.37039 0.53437 0.03500
H 	H 	0.70831 0.92716 0.59124 0.02800
H 	H 	0.27946 0.90991 0.41232 0.02900
H 	H 	0.20831 0.42716 0.59124 0.02900
H 	H 	0.77946 0.40991 0.41232 0.03100
H 	H 	0.85688 0.06097 0.42782 0.04500
H 	H 	0.79853 0.91371 0.58187 0.03200
H 	H 	0.14466 0.08840 0.56993 0.04100
H 	H 	0.35688 0.56097 0.42781 0.03800
H 	H 	0.64466 0.58840 0.56993 0.03500
H 	H 	0.81866 0.20434 0.42242 0.03100
H 	H 	0.19603 0.21732 0.57793 0.02900
H 	H 	0.31866 0.70434 0.42242 0.03000
H 	H 	0.69603 0.71731 0.57793 0.02800
H 	H 	0.84163 0.21890 0.54446 0.03600
H 	H 	0.19603 0.24069 0.45636 0.03900
H 	H 	0.34163 0.71890 0.54446 0.03500
H 	H 	0.18838 0.92318 0.41707 0.03300
H 	H 	0.69603 0.74069 0.45636 0.03900
H 	H 	0.65998 0.23836 0.13275 0.07500
H 	H 	0.63178 0.21326 0.04675 0.07300
H 	H 	0.29572 0.26051 0.84642 0.07700
H 	H 	0.34510 0.25944 0.92188 0.07200
H 	H 	0.18548 0.75818 0.15019 0.06900
H 	H 	0.13543 0.70861 0.08124 0.07100
H 	H 	0.83838 0.73995 0.86511 0.07000
H 	H 	0.86778 0.71254 0.95047 0.07200
H 	H 	0.29853 0.41371 0.58187 0.03400
H 	H 	0.68838 0.42318 0.41707 0.03700
H 	H 	0.03053 0.14058 0.43729 0.03300
H 	H 	0.95329 0.15009 0.56103 0.04100
H 	H 	0.53053 0.64058 0.43729 0.03500
H 	H 	0.36326 0.09552 0.55325 0.04200
H 	H 	0.45329 0.65009 0.56103 0.03900
H 	H 	0.94453 0.17665 0.43557 0.03300
H 	H 	0.04002 0.16384 0.55981 0.03200
H 	H 	0.44453 0.67665 0.43557 0.03200
H 	H 	0.54002 0.66384 0.55980 0.03300
H 	H 	0.60800 0.82458 0.46323 0.03800
H 	H 	0.38354 0.89229 0.54062 0.03900
H 	H 	0.10800 0.32458 0.46323 0.03800
H 	H 	0.88354 0.39229 0.54062 0.03600
H 	H 	0.59816 0.83844 0.58367 0.02800
H 	H 	0.14008 0.62357 0.44416 0.03300
H 	H 	0.39969 0.86515 0.41831 0.02500
H 	H 	0.09817 0.33843 0.58367 0.03000
H 	H 	0.89970 0.36515 0.41831 0.03000
H 	H 	0.95233 0.49409 0.42260 0.03700
H 	H 	0.05931 0.47941 0.57470 0.03500
H 	H 	0.45233 0.99409 0.42260 0.02500
H 	H 	0.55930 0.97941 0.57470 0.02700
H 	H 	0.94840 0.50189 0.53936 0.04300
H 	H 	0.08056 0.47345 0.45561 0.04300
H 	H 	0.44840 0.00189 0.53936 0.07100
H 	H 	0.86326 0.59552 0.55325 0.03700
H 	H 	0.58056 0.97345 0.45561 0.03600
H 	H 	0.83593 0.94500 0.06586 0.01400
H 	H 	0.18191 0.92018 0.94154 0.01400
H 	H 	0.33368 0.44469 0.06317 0.03500
H 	H 	0.66505 0.44285 0.93521 0.03600
H 	H 	0.70149 0.23350 0.44002 0.03200
H 	H 	0.31269 0.21814 0.55365 0.03100
H 	H 	0.20149 0.73350 0.44001 0.03100
H 	H 	0.81269 0.71813 0.55365 0.03000
H 	H 	0.85731 0.09502 0.06811 0.02700
H 	H 	0.86481 0.06695 0.54508 0.04800
H 	H 	0.14137 0.05422 0.93007 0.02900
H 	H 	0.35958 0.59117 0.07571 0.02900
H 	H 	0.64263 0.59153 0.93102 0.02900
H 	H 	0.87054 0.05102 0.94942 0.04400
H 	H 	0.13099 0.05088 0.04841 0.04200
H 	H 	0.37048 0.58803 0.95497 0.04400
H 	H 	0.62935 0.55359 0.05020 0.04300
H 	H 	0.81075 0.93997 0.94971 0.03000
H 	H 	0.19016 0.94014 0.05939 0.03100
H 	H 	0.32925 0.45881 0.94683 0.04900
H 	H 	0.13532 0.12347 0.45038 0.04800
H 	H 	0.68890 0.44138 0.05215 0.05200
H 	H 	0.70424 0.92013 0.03713 0.01100
H 	H 	0.33411 0.94286 0.95568 0.00800
H 	H 	0.20460 0.42064 0.04518 0.03500
H 	H 	0.79560 0.42003 0.96490 0.03500
H 	H 	0.69338 0.95792 0.91650 0.01200
H 	H 	0.30823 0.95703 0.07862 0.01400
H 	H 	0.20935 0.44046 0.92230 0.04100
H 	H 	0.80904 0.46079 0.08453 0.03400
H 	H 	0.77660 0.25166 0.09332 0.00800
H 	H 	0.36481 0.56695 0.54508 0.04100
H 	H 	0.19490 0.22713 0.91199 0.00900
H 	H 	0.28600 0.75207 0.08488 0.00800
H 	H 	0.72252 0.75001 0.90490 0.00700
H 	H 	0.80524 0.25014 0.97919 0.04700
H 	H 	0.19223 0.25263 0.02873 0.04800
H 	H 	0.27455 0.79456 0.96408 0.04400
H 	H 	0.69411 0.75106 0.01811 0.04800
H 	H 	0.71761 0.28067 0.95466 0.05400
H 	H 	0.28275 0.27801 0.03718 0.05300
H 	H 	0.18879 0.74518 0.96235 0.04800
H 	H 	0.63532 0.62347 0.45038 0.04400
H 	H 	0.78171 0.78219 0.04331 0.05300
H 	H 	0.64060 0.02404 0.05162 0.03700
H 	H 	0.35824 0.08797 0.95528 0.02900
H 	H 	0.14308 0.53139 0.04819 0.03600
H 	H 	0.85881 0.52308 0.94821 0.03800
H 	H 	0.68701 0.23936 0.56342 0.03900
H 	H 	0.32672 0.21862 0.43252 0.03800
H 	H 	0.18702 0.73937 0.56342 0.03600
H 	H 	0.82672 0.71862 0.43252 0.03400
H 	H 	0.64969 0.09381 0.93329 0.03200
H 	H 	0.78309 0.88161 0.46229 0.04200
H 	H 	0.34902 0.09799 0.07478 0.03300
H 	H 	0.15421 0.56383 0.92620 0.03300
H 	H 	0.84951 0.59887 0.06534 0.03400
H 	H 	0.03631 0.54592 0.05966 0.03100
H 	H 	0.96235 0.54664 0.94001 0.03600
H 	H 	0.53482 0.04564 0.05913 0.06300
H 	H 	0.45450 0.03905 0.94187 0.06700
H 	H 	0.94907 0.51372 0.06009 0.03200
H 	H 	0.04873 0.51611 0.94059 0.03000
H 	H 	0.44803 0.01379 0.06320 0.06300
N 	N 	0.67070 0.24784 0.07851 -0.19100
N 	N 	0.29618 0.27317 0.90171 -0.19100
N 	N 	0.17979 0.75377 0.09467 -0.19100
N 	N 	0.82842 0.74797 0.91958 -0.19000
O 	O 	0.95721 0.44941 0.66548 -0.46600
O 	O 	0.16748 0.09530 0.16400 -0.45500
O 	O 	0.33252 0.59530 0.83600 -0.46000
O 	O 	0.66748 0.59530 0.16400 -0.46000
O 	O 	0.94638 0.25394 0.82694 -0.50100
O 	O 	0.05362 0.25394 0.17306 -0.50500
O 	O 	0.44638 0.75394 0.82694 -0.50400
O 	O 	0.55362 0.75394 0.17306 -0.50500
O 	O 	0.83456 0.33457 0.74884 -0.71300
O 	O 	0.16544 0.33457 0.25116 -0.71200
O 	O 	0.33456 0.83457 0.74884 -0.71800
O 	O 	0.04279 0.44941 0.33452 -0.46800
O 	O 	0.66544 0.83457 0.25116 -0.71700
O 	O 	0.82073 0.54124 0.66825 -0.50900
O 	O 	0.17927 0.54124 0.33175 -0.50900
O 	O 	0.32073 0.04124 0.66825 -0.50000
O 	O 	0.67927 0.04124 0.33175 -0.49800
O 	O 	0.71424 0.45506 0.66371 -0.46700
O 	O 	0.28576 0.45506 0.33629 -0.46500
O 	O 	0.21424 0.95506 0.66371 -0.49400
O 	O 	0.78576 0.95506 0.33629 -0.49200
O 	O 	0.73678 0.20487 0.67591 -0.50600
O 	O 	0.45721 0.94941 0.66548 -0.47600
O 	O 	0.26322 0.20487 0.32409 -0.50700
O 	O 	0.23678 0.70487 0.67591 -0.51100
O 	O 	0.76322 0.70487 0.32409 -0.51100
O 	O 	0.83307 0.08759 0.67349 -0.46300
O 	O 	0.16693 0.08759 0.32651 -0.46200
O 	O 	0.33307 0.58759 0.67349 -0.47100
O 	O 	0.66693 0.58759 0.32651 -0.47000
O 	O 	0.94689 0.24680 0.67630 -0.49900
O 	O 	0.05311 0.24680 0.32370 -0.50000
O 	O 	0.44689 0.74680 0.67630 -0.50200
O 	O 	0.54279 0.94941 0.33452 -0.47400
O 	O 	0.55311 0.74680 0.32370 -0.50100
O 	O 	0.95665 0.45712 0.82798 -0.46800
O 	O 	0.04335 0.45712 0.17202 -0.47000
O 	O 	0.45665 0.95712 0.82798 -0.47800
O 	O 	0.54335 0.95712 0.17202 -0.47900
O 	O 	0.82022 0.54839 0.81889 -0.51100
O 	O 	0.17978 0.54839 0.18111 -0.51100
O 	O 	0.32022 0.04839 0.81889 -0.50500
O 	O 	0.67978 0.04839 0.18111 -0.50600
O 	O 	0.71368 0.46277 0.82621 -0.47400
O 	O 	0.73626 0.21201 0.82656 -0.49600
O 	O 	0.28632 0.46277 0.17379 -0.47500
O 	O 	0.21368 0.96277 0.82621 -0.50500
O 	O 	0.78632 0.96277 0.17379 -0.50300
O 	O 	0.26374 0.21201 0.17344 -0.49500
O 	O 	0.23626 0.71201 0.82656 -0.49900
O 	O 	0.76374 0.71201 0.17344 -0.49600
O 	O 	0.83252 0.09530 0.83600 -0.45600
