data_crystal

_cell_length_a 27.81154
_cell_length_b 9.38891
_cell_length_c 7.76063
_cell_angle_alpha 90.00095
_cell_angle_beta  90.00374
_cell_angle_gamma 88.09687

_symmetry_space_group_name_	'P 1'
_symmetry_space_group_name_H-M	'P 1'

loop_
_symmetry_equiv_pos_as_xyz
  x,y,z

loop_
_atom_site_label
_atom_site_type_symbol
_atom_site_fract_x
_atom_site_fract_y
_atom_site_fract_z
_atom_site_charge
O 	O 	0.50000 0.28839 0.64276 -0.35000
O 	O 	0.50000 0.71161 0.35724 -0.34800
O 	O 	0.50000 0.71161 0.64276 -0.35100
O 	O 	0.50000 0.28839 0.35724 -0.34800
C 	C 	0.50006 0.21947 0.50000 0.32100
C 	C 	0.49994 0.78053 0.50000 0.32100
O 	O 	0.43026 0.50000 0.64277 -0.38700
O 	O 	0.56974 0.50000 0.35723 -0.37300
O 	O 	0.56974 0.50000 0.64277 -0.38700
O 	O 	0.43026 0.50000 0.35723 -0.37300
C 	C 	0.40713 0.50383 0.49979 0.40600
C 	C 	0.59287 0.49617 0.49980 0.40600
Cu	Cu	0.50000 0.50000 0.66908 0.92400
Cu	Cu	0.50000 0.50000 0.33092 0.92500
C 	C 	0.17917 0.38512 0.49603 0.17100
C 	C 	0.82082 0.61500 0.49612 0.17100
C 	C 	0.17524 0.63580 0.45073 0.17900
C 	C 	0.82476 0.36431 0.45092 0.17900
O 	O 	0.20566 0.26783 0.54058 -0.16300
O 	O 	0.79433 0.73227 0.54070 -0.16300
O 	O 	0.19777 0.76051 0.44009 -0.15900
O 	O 	0.80225 0.23958 0.44037 -0.15900
N 	N 	0.20115 0.51278 0.48420 -0.18000
N 	N 	0.79885 0.48732 0.48434 -0.18000
C 	C 	0.27656 0.58697 0.61902 -0.20500
C 	C 	0.72345 0.41312 0.61913 -0.20500
C 	C 	0.27937 0.43997 0.36319 -0.21500
C 	C 	0.72063 0.56007 0.36327 -0.21500
C 	C 	0.32678 0.58913 0.62246 0.28700
C 	C 	0.67322 0.41093 0.62254 0.28700
C 	C 	0.32978 0.43570 0.36676 0.28900
C 	C 	0.67022 0.56430 0.36680 0.28900
C 	C 	0.25278 0.51391 0.48928 0.22100
C 	C 	0.74722 0.48616 0.48940 0.22100
C 	C 	0.10165 0.50369 0.44887 -0.00300
C 	C 	0.89835 0.49648 0.44889 -0.00300
C 	C 	0.12929 0.37656 0.46343 0.00700
C 	C 	0.87069 0.62360 0.46345 0.00700
C 	C 	0.12505 0.63291 0.43074 0.00400
C 	C 	0.87495 0.36723 0.43088 0.00400
C 	C 	0.10712 0.24757 0.42549 -0.11100
C 	C 	0.89286 0.75260 0.42547 -0.11100
C 	C 	0.09749 0.75271 0.38026 -0.10200
C 	C 	0.90251 0.24742 0.38044 -0.10200
C 	C 	0.35398 0.51002 0.49734 -0.24900
C 	C 	0.64602 0.49000 0.49738 -0.24900
H 	H 	0.26046 0.38410 0.26302 0.11300
H 	H 	0.73954 0.61592 0.26310 0.11300
H 	H 	0.25583 0.64509 0.71584 0.12600
H 	H 	0.74417 0.35503 0.71598 0.12600
C 	C 	0.97662 0.36861 0.43313 -0.02600
C 	C 	0.02337 0.63160 0.43298 -0.02600
C 	C 	0.97217 0.63007 0.42730 -0.02200
C 	C 	0.02782 0.37013 0.42743 -0.02200
C 	C 	0.94933 0.49877 0.43839 0.03000
C 	C 	0.05066 0.50143 0.43838 0.03000
C 	C 	0.95090 0.24174 0.43272 0.18700
C 	C 	0.04909 0.75845 0.43242 0.18700
C 	C 	0.94270 0.75167 0.38862 0.17300
C 	C 	0.05727 0.24851 0.38883 0.17300
C 	C 	0.50002 0.06476 0.50000 -0.02100
C 	C 	0.49998 0.93524 0.50001 -0.02100
N 	N 	0.50000 0.50000 0.07682 -0.11800
N 	N 	0.50000 0.50000 0.92318 -0.11200
O 	O 	0.35596 0.35733 0.24616 -0.28600
H 	H 	0.33357 0.31215 0.16482 0.16800
O 	O 	0.64404 0.64264 0.24616 -0.28600
H 	H 	0.66643 0.68782 0.16482 0.16800
O 	O 	0.34741 0.67219 0.74721 -0.29500
H 	H 	0.37870 0.70461 0.70437 0.18000
O 	O 	0.65260 0.32788 0.74729 -0.29500
H 	H 	0.62131 0.29543 0.70443 0.18000
C 	C 	0.13680 0.11687 0.39718 0.31800
O 	O 	0.13885 0.02480 0.50830 -0.21900
O 	O 	0.16625 0.10678 0.25149 -0.29900
H 	H 	0.18939 0.02125 0.25569 0.19000
C 	C 	0.86316 0.88334 0.39746 0.31700
O 	O 	0.86119 0.97538 0.50863 -0.21900
O 	O 	0.83362 0.89350 0.25200 -0.29900
H 	H 	0.81047 0.97898 0.25648 0.19000
C 	C 	0.10879 0.81833 0.21068 0.30900
O 	O 	0.07739 0.88461 0.13142 -0.22000
O 	O 	0.15353 0.79251 0.13229 -0.29300
H 	H 	0.15586 0.83884 0.01468 0.17600
C 	C 	0.89130 0.18210 0.21060 0.30900
O 	O 	0.92284 0.11695 0.13071 -0.22000
O 	O 	0.84644 0.20703 0.13270 -0.29300
H 	H 	0.84417 0.16107 0.01486 0.17600
O 	O 	0.97145 0.11825 0.49889 -0.25200
H 	H 	0.94608 0.04801 0.51375 0.19000
O 	O 	0.02856 0.88198 0.49851 -0.25200
H 	H 	0.05395 0.95213 0.51361 0.19000
O 	O 	0.96103 0.85557 0.28508 -0.25200
H 	H 	0.93774 0.87105 0.18992 0.17600
O 	O 	0.03895 0.14461 0.28529 -0.25100
H 	H 	0.06195 0.13068 0.18892 0.17600
