data_crystal

_cell_length_a 7.46294
_cell_length_b 14.56510
_cell_length_c 16.84281
_cell_angle_alpha 88.68812
_cell_angle_beta  85.19227
_cell_angle_gamma 90.98357

_symmetry_space_group_name_	'P 1'
_symmetry_space_group_name_H-M	'P 1'

loop_
_symmetry_equiv_pos_as_xyz
  x,y,z

loop_
_atom_site_label
_atom_site_type_symbol
_atom_site_fract_x
_atom_site_fract_y
_atom_site_fract_z
_atom_site_charge
O 	O 	0.49440 0.41545 0.41263 -0.42100
O 	O 	0.82394 0.40573 0.58676 -0.47100
O 	O 	0.99424 0.58455 0.58737 -0.42200
C 	C 	0.65214 0.39425 0.62159 0.28800
O 	O 	0.82411 0.40443 0.41324 -0.43400
O 	O 	0.99442 0.58324 0.41262 -0.46100
C 	C 	0.65967 0.38314 0.38445 0.25500
O 	O 	0.49423 0.41676 0.58738 -0.44900
O 	O 	0.66080 0.55867 0.50000 -0.60700
V 	V 	0.93565 0.48912 0.50000 1.76900
O 	O 	0.32414 0.59427 0.41324 -0.45000
C 	C 	0.16294 0.61167 0.38217 0.28600
O 	O 	0.32396 0.59557 0.58676 -0.45600
C 	C 	0.15360 0.61806 0.61429 0.28100
V 	V 	0.43566 0.51088 0.50000 1.76800
O 	O 	0.16064 0.44133 0.50000 -0.61100
C 	C 	0.99943 0.69025 0.75553 0.10800
C 	C 	0.14273 0.70627 0.81634 -0.05500
H 	H 	0.14951 0.66724 0.87343 0.03300
C 	C 	0.11846 0.81236 0.80771 -0.04800
C 	C 	0.97599 0.79562 0.74503 0.06800
C 	C 	0.12727 0.79622 0.67677 0.05300
C 	C 	0.26810 0.81473 0.73782 -0.03600
C 	C 	0.29198 0.70918 0.74525 0.00200
C 	C 	0.14670 0.69045 0.68441 -0.08300
H 	H 	0.36428 0.87392 0.73612 0.05200
H 	H 	0.42524 0.67656 0.74217 0.03200
C 	C 	0.28898 0.78839 0.20689 0.06100
C 	C 	0.11983 0.81343 0.17936 -0.06200
C 	C 	0.97100 0.75776 0.21179 -0.03200
H 	H 	0.84476 0.76039 0.18286 0.06600
C 	C 	0.99613 0.68834 0.27193 0.09600
C 	C 	0.16297 0.67327 0.30684 -0.08700
C 	C 	0.31520 0.72255 0.26561 -0.00200
C 	C 	0.51816 0.73687 0.24431 0.07400
C 	C 	0.47692 0.82326 0.19482 -0.11700
H 	H 	0.57967 0.68863 0.19677 0.02400
H 	H 	0.54774 0.82699 0.13184 0.09100
H 	H 	0.48409 0.89043 0.22859 0.07700
C 	C 	0.49177 0.30520 0.74864 0.00500
C 	C 	0.64486 0.34396 0.70542 -0.07900
C 	C 	0.79727 0.33799 0.75737 0.10800
C 	C 	0.80922 0.26107 0.81382 0.04200
C 	C 	0.64316 0.20414 0.83573 -0.09200
C 	C 	0.49629 0.24731 0.81310 0.02900
C 	C 	0.31270 0.25361 0.84835 -0.00600
C 	C 	0.29762 0.31569 0.77491 0.05800
H 	H 	0.26671 0.17600 0.84424 0.04800
H 	H 	0.22810 0.26874 0.73607 0.03100
C 	C 	0.50441 0.29653 0.27371 -0.03600
C 	C 	0.65623 0.31620 0.31259 0.00500
C 	C 	0.79986 0.26890 0.27322 -0.09700
H 	H 	0.93397 0.27296 0.28345 0.08300
C 	C 	0.79435 0.20522 0.21068 0.16600
C 	C 	0.62957 0.18475 0.17471 -0.11100
C 	C 	0.49138 0.24018 0.20808 0.06400
C 	C 	0.29637 0.25487 0.21334 -0.00800
C 	C 	0.31500 0.31255 0.28877 0.13900
H 	H 	0.23329 0.18862 0.23491 0.06500
O 	O 	0.77165 0.07950 0.90868 -0.46900
O 	O 	0.44169 0.09180 0.08280 -0.38300
O 	O 	0.27146 0.91298 0.08341 -0.41300
C 	C 	0.60960 0.11443 0.10897 0.30600
O 	O 	0.44193 0.09051 0.90928 -0.48900
O 	O 	0.27169 0.91167 0.90866 -0.44200
C 	C 	0.61729 0.11776 0.88792 0.29300
O 	O 	0.77141 0.08081 0.08344 -0.40300
O 	O 	0.60510 0.93758 0.99605 -0.66300
V 	V 	0.33022 0.00711 0.99603 1.73700
O 	O 	0.94198 0.90062 0.90925 -0.45500
C 	C 	0.11215 0.88047 0.88036 0.26400
O 	O 	0.94174 0.90192 0.08277 -0.39100
C 	C 	0.10680 0.88169 0.11102 0.28700
V 	V 	0.83022 0.98530 0.99600 1.73600
O 	O 	0.10521 0.05487 0.99602 -0.67900
O 	O 	0.63346 0.76879 0.30313 -0.18200
C 	C 	0.63398 0.71563 0.37595 -0.03500
H 	H 	0.77921 0.70903 0.38907 0.06500
H 	H 	0.58666 0.64390 0.37077 0.04200
H 	H 	0.54894 0.74973 0.42486 0.05300
O 	O 	0.93932 0.39734 0.74348 -0.16800
C 	C 	0.03420 0.35050 0.67416 -0.03200
H 	H 	0.04480 0.42882 0.65781 0.05700
H 	H 	0.96140 0.29038 0.64505 0.06000
H 	H 	0.16219 0.36569 0.63531 0.03800
N 	N 	0.98042 0.23487 0.83767 -0.15100
H 	H 	0.95377 0.23744 0.90553 0.06700
H 	H 	0.00204 0.16479 0.81459 0.08000
N 	N 	0.29610 0.29857 0.92952 -0.15100
H 	H 	0.18026 0.26786 0.96813 0.04300
H 	H 	0.41359 0.28823 0.96693 0.04100
O 	O 	0.25034 0.40708 0.79842 -0.16100
C 	C 	0.33294 0.47856 0.74536 -0.03800
H 	H 	0.30279 0.47176 0.68328 0.05000
H 	H 	0.48336 0.48498 0.74439 0.05000
H 	H 	0.27509 0.54430 0.76647 0.05300
O 	O 	0.86501 0.62001 0.76610 -0.17800
C 	C 	0.73307 0.64423 0.82733 -0.02300
H 	H 	0.65633 0.70530 0.80854 0.04700
H 	H 	0.79261 0.65992 0.88526 0.02700
H 	H 	0.63684 0.58486 0.83852 0.03500
O 	O 	0.97205 0.18537 0.18586 -0.18500
C 	C 	0.02380 0.11420 0.14036 -0.03700
H 	H 	0.01043 0.15003 0.08128 0.11100
H 	H 	0.96666 0.04658 0.16695 0.06300
H 	H 	0.16622 0.10322 0.14333 0.05900
O 	O 	0.23368 0.28887 0.14014 -0.13400
C 	C 	0.27214 0.38152 0.11939 -0.05000
H 	H 	0.41912 0.39902 0.11627 0.06600
H 	H 	0.18614 0.42849 0.15625 0.05000
H 	H 	0.22771 0.39236 0.05904 0.09400
O 	O 	0.26153 0.26107 0.36109 -0.17700
C 	C 	0.10210 0.29378 0.39955 -0.03600
H 	H 	0.03710 0.33393 0.36059 0.04600
H 	H 	0.11987 0.35934 0.41261 0.04300
H 	H 	0.02391 0.24738 0.44365 0.05200
N 	N 	0.28695 0.41354 0.28940 -0.18400
H 	H 	0.37994 0.44971 0.24913 0.08800
H 	H 	0.15603 0.43308 0.28052 0.07900
O 	O 	0.80874 0.83955 0.74079 -0.17200
C 	C 	0.73460 0.81410 0.66877 -0.03400
H 	H 	0.72745 0.73691 0.66155 0.05500
H 	H 	0.81136 0.84881 0.61676 0.04400
H 	H 	0.59580 0.84070 0.66653 0.04700
N 	N 	0.15927 0.84876 0.60047 -0.17600
H 	H 	0.11994 0.91685 0.61009 0.08600
H 	H 	0.07336 0.81871 0.55919 0.08100
N 	N 	0.86934 0.60932 0.27910 -0.17300
H 	H 	0.92959 0.54341 0.27137 0.08900
H 	H 	0.72923 0.62308 0.26987 0.08600
