data_crystal

_cell_length_a 7.03516
_cell_length_b 12.23923
_cell_length_c 35.52063
_cell_angle_alpha 89.99994
_cell_angle_beta  92.74027
_cell_angle_gamma 89.99989

_symmetry_space_group_name_	'P 1'
_symmetry_space_group_name_H-M	'P 1'

loop_
_symmetry_equiv_pos_as_xyz
  x,y,z

loop_
_atom_site_label
_atom_site_type_symbol
_atom_site_fract_x
_atom_site_fract_y
_atom_site_fract_z
_atom_site_charge
O 	O 	0.37973 0.14860 0.66271 -0.46400
O 	O 	0.62027 0.85140 0.33729 -0.46600
O 	O 	0.12027 0.64860 0.33729 -0.47300
O 	O 	0.87973 0.35140 0.66271 -0.46300
O 	O 	0.72248 0.13449 0.74133 -0.46100
O 	O 	0.27752 0.86551 0.25867 -0.46500
O 	O 	0.77752 0.63449 0.25867 -0.46300
O 	O 	0.22248 0.36551 0.74133 -0.46100
O 	O 	0.89288 0.34589 0.74160 -0.45600
O 	O 	0.10712 0.65411 0.25840 -0.46800
O 	O 	0.60712 0.84589 0.25840 -0.46000
O 	O 	0.39288 0.15411 0.74160 -0.45800
C 	C 	0.55487 0.10953 0.75350 0.39600
C 	C 	0.44499 0.88972 0.24622 0.39800
C 	C 	0.94513 0.60954 0.24650 0.40600
C 	C 	0.05501 0.38972 0.75377 0.39400
O 	O 	0.70949 0.13556 0.66299 -0.48500
O 	O 	0.29051 0.86444 0.33701 -0.49000
O 	O 	0.79051 0.63556 0.33701 -0.48800
O 	O 	0.20949 0.36444 0.66299 -0.48700
C 	C 	0.53729 0.10686 0.65162 0.37600
C 	C 	0.46271 0.89314 0.34838 0.37600
C 	C 	0.96271 0.60686 0.34838 0.38500
C 	C 	0.03729 0.39314 0.65162 0.37300
O 	O 	0.55280 0.31661 0.70216 -0.63400
O 	O 	0.44720 0.68339 0.29784 -0.63400
O 	O 	0.94720 0.81661 0.29784 -0.62900
O 	O 	0.05280 0.18339 0.70216 -0.63400
V 	V 	0.82763 0.23438 0.70216 1.81100
V 	V 	0.17237 0.76562 0.29784 1.80800
V 	V 	0.67237 0.73438 0.29784 1.81000
V 	V 	0.32763 0.26562 0.70216 1.81000
C 	C 	0.00948 0.65557 0.91514 0.17000
C 	C 	0.97633 0.32237 0.09085 0.18800
C 	C 	0.49052 0.15556 0.08486 0.18900
C 	C 	0.52367 0.82237 0.90915 0.19500
O 	O 	0.98978 0.54763 0.92081 -0.17500
O 	O 	0.97939 0.43015 0.08387 -0.17700
O 	O 	0.51021 0.04763 0.07919 -0.18200
O 	O 	0.52061 0.93015 0.91613 -0.18600
N 	N 	0.03614 0.69486 0.87945 -0.17600
N 	N 	0.95947 0.28506 0.12706 -0.17700
N 	N 	0.46386 0.19486 0.12055 -0.17800
N 	N 	0.54053 0.78505 0.87294 -0.18000
C 	C 	0.05754 0.80544 0.87457 0.20600
C 	C 	0.95182 0.17445 0.13322 0.20800
C 	C 	0.44246 0.30544 0.12543 0.21000
C 	C 	0.54818 0.67445 0.86678 0.21300
C 	C 	0.94806 0.64219 0.81210 -0.09300
C 	C 	0.05868 0.35012 0.19249 -0.11100
C 	C 	0.55194 0.14219 0.18790 -0.09900
C 	C 	0.44132 0.85012 0.80751 -0.10000
C 	C 	0.95121 0.56787 0.78186 0.08400
C 	C 	0.06002 0.43079 0.22078 0.07400
C 	C 	0.54878 0.06787 0.21814 0.09000
C 	C 	0.43998 0.93079 0.77922 0.06900
C 	C 	0.15151 0.44714 0.81996 0.19700
C 	C 	0.83268 0.53652 0.18307 0.19900
C 	C 	0.34849 0.94714 0.18004 0.18500
C 	C 	0.66731 0.03652 0.81693 0.20700
C 	C 	0.14862 0.52148 0.85003 -0.12800
C 	C 	0.83143 0.45605 0.15501 -0.13200
C 	C 	0.35138 0.02148 0.14997 -0.10600
C 	C 	0.66857 0.95605 0.84499 -0.14200
C 	C 	0.04529 0.62008 0.84711 0.15200
C 	C 	0.94753 0.36248 0.15849 0.17200
C 	C 	0.45471 0.12008 0.15288 0.15300
C 	C 	0.55247 0.86248 0.84151 0.16400
C 	C 	0.02285 0.83944 0.94184 0.07100
C 	C 	0.97915 0.13681 0.06596 0.06400
C 	C 	0.47715 0.33944 0.05816 0.08000
C 	C 	0.52085 0.63681 0.93404 0.08200
C 	C 	0.99806 0.72681 0.94633 -0.05800
C 	C 	0.99414 0.24966 0.06040 -0.05900
C 	C 	0.50194 0.22681 0.05367 -0.07900
C 	C 	0.50587 0.74965 0.93960 -0.08200
C 	C 	0.96799 0.68597 0.98213 0.00200
C 	C 	0.01838 0.28940 0.02423 -0.01500
C 	C 	0.53201 0.18597 0.01787 0.00500
C 	C 	0.48162 0.78940 0.97577 0.00700
C 	C 	0.06380 0.87850 0.90576 -0.11400
C 	C 	0.94597 0.09923 0.10259 -0.10000
C 	C 	0.43620 0.37850 0.09424 -0.12100
C 	C 	0.55403 0.59923 0.89741 -0.12000
C 	C 	0.05244 0.46932 0.78550 -0.13900
C 	C 	0.94800 0.52530 0.21627 -0.13000
C 	C 	0.44755 0.96932 0.21451 -0.14200
C 	C 	0.55200 0.02530 0.78373 -0.12800
H 	H 	0.22354 0.49989 0.87613 0.11000
H 	H 	0.74393 0.46933 0.12973 0.11500
H 	H 	0.27646 0.99989 0.12387 0.09600
H 	H 	0.75607 0.96933 0.87027 0.11600
H 	H 	0.95458 0.59836 0.98609 0.05400
H 	H 	0.02343 0.37698 0.01946 0.05300
H 	H 	0.54542 0.09835 0.01391 0.05400
H 	H 	0.47658 0.87698 0.98054 0.04900
C 	C 	0.95608 0.94865 0.04039 0.02600
C 	C 	0.05034 0.02563 0.96835 0.06500
C 	C 	0.54392 0.44865 0.95961 0.05000
C 	C 	0.44966 0.52563 0.03165 0.04700
C 	C 	0.02819 0.10274 0.99833 -0.01600
C 	C 	0.97146 0.87152 0.00979 0.02800
C 	C 	0.47181 0.60274 0.00167 0.00700
C 	C 	0.52854 0.37152 0.99021 0.00800
C 	C 	0.99048 0.06223 0.03481 -0.00200
C 	C 	0.01232 0.91257 0.97344 -0.06000
C 	C 	0.50952 0.56222 0.96518 -0.03600
C 	C 	0.48768 0.41257 0.02655 -0.03600
C 	C 	0.89494 0.91849 0.07616 -0.09100
C 	C 	0.12276 0.05638 0.93374 -0.09500
C 	C 	0.60506 0.41849 0.92384 -0.10500
C 	C 	0.37723 0.55638 0.06626 -0.10500
C 	C 	0.89831 0.98876 0.10685 0.14800
C 	C 	0.11961 0.98824 0.90261 0.14300
C 	C 	0.60169 0.48876 0.89315 0.16500
C 	C 	0.38039 0.48824 0.09739 0.16300
O 	O 	0.95155 0.13704 0.16880 -0.17600
O 	O 	0.07123 0.84526 0.83959 -0.18800
O 	O 	0.54845 0.63704 0.83120 -0.18300
O 	O 	0.42877 0.34525 0.16041 -0.18400
C 	C 	0.95723 0.75449 0.01341 -0.03500
C 	C 	0.03255 0.21951 0.99354 -0.02100
C 	C 	0.54277 0.25449 0.98659 -0.03100
C 	C 	0.46745 0.71950 0.00646 -0.03500
H 	H 	0.14894 0.41937 0.24621 0.03300
H 	H 	0.87291 0.58697 0.75570 0.03100
H 	H 	0.35107 0.91937 0.75379 0.03200
H 	H 	0.62708 0.08697 0.24430 0.03300
H 	H 	0.15095 0.28020 0.19686 0.09400
H 	H 	0.86300 0.71521 0.80824 0.09000
H 	H 	0.34906 0.78020 0.80314 0.09200
H 	H 	0.63699 0.21521 0.19176 0.09200
H 	H 	0.82660 0.84304 0.08124 0.10200
H 	H 	0.19756 0.13135 0.93046 0.09700
H 	H 	0.67341 0.34303 0.91876 0.10700
H 	H 	0.30243 0.63134 0.06953 0.09700
C 	C 	0.98465 0.52817 0.37895 -0.09900
C 	C 	0.01535 0.47181 0.62104 -0.10000
C 	C 	0.51535 0.02817 0.62105 -0.09600
C 	C 	0.48464 0.97181 0.37896 -0.10500
C 	C 	0.11584 0.36007 0.40403 -0.07800
C 	C 	0.88424 0.63993 0.59596 -0.07300
C 	C 	0.38421 0.86006 0.59597 -0.07900
C 	C 	0.61576 0.13993 0.40403 -0.07100
C 	C 	0.07833 0.42932 0.37353 0.03100
C 	C 	0.92176 0.57069 0.62646 0.03600
C 	C 	0.42174 0.92931 0.62647 0.02800
C 	C 	0.57825 0.07069 0.37354 0.04200
C 	C 	0.93710 0.55986 0.41496 0.02600
C 	C 	0.06282 0.44009 0.58503 0.00800
C 	C 	0.56283 0.05989 0.58503 0.03200
C 	C 	0.43715 0.94010 0.41497 -0.00100
C 	C 	0.00056 0.49947 0.44694 -0.03400
C 	C 	0.99939 0.50049 0.55305 -0.00500
C 	C 	0.49939 0.99948 0.55306 -0.04600
C 	C 	0.50057 0.00050 0.44695 0.01100
C 	C 	0.07526 0.39389 0.44055 0.05300
C 	C 	0.92474 0.60608 0.55944 0.04100
C 	C 	0.42473 0.89390 0.55945 0.05700
C 	C 	0.57522 0.10609 0.44056 0.03600
C 	C 	0.98589 0.53819 0.48475 0.02400
C 	C 	0.01404 0.46176 0.51524 -0.00700
C 	C 	0.51404 0.03821 0.51525 0.04000
C 	C 	0.48590 0.96178 0.48475 -0.02400
C 	C 	0.05172 0.34986 0.50635 -0.00500
C 	C 	0.94822 0.65009 0.49364 -0.01800
C 	C 	0.44823 0.84988 0.49365 0.00100
C 	C 	0.55170 0.15011 0.50636 -0.02400
C 	C 	0.09778 0.32044 0.47013 -0.06600
C 	C 	0.90221 0.67953 0.52986 -0.05500
C 	C 	0.40220 0.82045 0.52987 -0.07100
C 	C 	0.59773 0.17955 0.47013 -0.04900
H 	H 	0.13824 0.23662 0.46437 0.05500
H 	H 	0.86179 0.76336 0.53562 0.05200
H 	H 	0.36177 0.73662 0.53563 0.05500
H 	H 	0.63816 0.26337 0.46437 0.05200
H 	H 	0.14979 0.36823 0.58299 0.05300
H 	H 	0.85007 0.63170 0.41700 0.04900
H 	H 	0.35018 0.86824 0.41701 0.05400
H 	H 	0.64982 0.13174 0.58300 0.04800
H 	H 	0.88184 0.59501 0.65432 0.03400
H 	H 	0.11833 0.40502 0.34567 0.03300
H 	H 	0.61820 0.09501 0.34568 0.03500
H 	H 	0.38180 0.90499 0.65433 0.03200
H 	H 	0.17827 0.28064 0.39917 0.05500
H 	H 	0.82189 0.71938 0.60083 0.05400
H 	H 	0.32184 0.78061 0.60084 0.05500
H 	H 	0.67813 0.21938 0.39917 0.05500
Br	Br	0.27427 0.30984 0.82840 -0.16100
Br	Br	0.68999 0.66654 0.17311 -0.15800
Br	Br	0.22573 0.80984 0.17159 -0.16400
Br	Br	0.81001 0.16654 0.82689 -0.15500
C 	C 	0.02439 0.25912 0.53161 0.07800
N 	N 	0.00304 0.18574 0.55154 -0.11100
C 	C 	0.97555 0.74083 0.46837 0.08400
N 	N 	0.99690 0.81420 0.44844 -0.11300
C 	C 	0.47555 0.75913 0.46838 0.07500
N 	N 	0.49690 0.68575 0.44846 -0.11200
C 	C 	0.52438 0.24086 0.53162 0.08600
N 	N 	0.50305 0.31423 0.55155 -0.11400
Br	Br	0.80430 0.92815 0.15193 -0.17000
Br	Br	0.22376 0.05070 0.85880 -0.15500
Br	Br	0.69571 0.42815 0.84807 -0.16900
Br	Br	0.27624 0.55070 0.14119 -0.17300
C 	C 	0.94108 0.69612 0.04831 0.09100
N 	N 	0.92590 0.64924 0.07628 -0.08500
C 	C 	0.03492 0.27524 0.95774 0.08000
N 	N 	0.03943 0.31995 0.92910 -0.09100
C 	C 	0.55891 0.19612 0.95169 0.08900
N 	N 	0.57409 0.14924 0.92372 -0.08400
C 	C 	0.46509 0.77524 0.04226 0.08500
N 	N 	0.46059 0.81994 0.07090 -0.09300
