data_crystal

_cell_length_a 11.08348
_cell_length_b 10.93120
_cell_length_c 18.78728
_cell_angle_alpha 89.89476
_cell_angle_beta  90.34735
_cell_angle_gamma 59.79982

_symmetry_space_group_name_	'P 1'
_symmetry_space_group_name_H-M	'P 1'

loop_
_symmetry_equiv_pos_as_xyz
  x,y,z

loop_
_atom_site_label
_atom_site_type_symbol
_atom_site_fract_x
_atom_site_fract_y
_atom_site_fract_z
_atom_site_charge
C 	C 	0.24077 0.64381 0.61107 0.41600
C 	C 	0.55081 0.20619 0.71934 0.01800
C 	C 	0.56113 0.20458 0.79164 0.00900
C 	C 	0.65392 0.62280 0.60060 0.38900
C 	C 	0.92725 0.12947 0.81464 -0.12000
C 	C 	0.04148 0.09978 0.77238 0.05900
C 	C 	0.03494 0.08715 0.69915 0.06700
C 	C 	0.91324 0.10644 0.66736 -0.12700
C 	C 	0.66409 0.17899 0.67649 -0.11600
C 	C 	0.19335 0.65682 0.83782 -0.12000
C 	C 	0.19725 0.54277 0.80009 0.04700
C 	C 	0.66411 0.55853 0.80051 -0.04000
C 	C 	0.19093 0.54716 0.72445 0.05200
C 	C 	0.22974 0.74716 0.72818 -0.00400
C 	C 	0.22115 0.75083 0.80150 -0.00200
C 	C 	0.62838 0.22789 0.60281 0.41300
C 	C 	0.20721 0.42458 0.83600 -0.04400
C 	C 	0.19739 0.32008 0.79901 -0.02000
C 	C 	0.17421 0.33273 0.72592 -0.01100
C 	C 	0.16922 0.44578 0.68888 -0.05000
C 	C 	0.20811 0.65164 0.68787 -0.12500
C 	C 	0.70447 0.69387 0.18309 -0.09800
C 	C 	0.69962 0.67637 0.81154 -0.09200
C 	C 	0.78200 0.55881 0.21722 0.02200
C 	C 	0.80794 0.55308 0.29115 0.06600
C 	C 	0.61995 0.79873 0.29934 0.00200
C 	C 	0.63272 0.81427 0.22618 -0.03000
C 	C 	0.22767 0.64991 0.39885 0.44400
C 	C 	0.83133 0.42922 0.18086 -0.05900
C 	C 	0.92441 0.30154 0.21295 -0.01100
C 	C 	0.96584 0.29780 0.28286 -0.09600
C 	C 	0.92169 0.42253 0.32079 -0.13000
C 	C 	0.69905 0.66595 0.33146 -0.13100
C 	C 	0.67010 0.64890 0.67586 -0.07600
C 	C 	0.65878 0.16817 0.17355 -0.11200
C 	C 	0.52766 0.23071 0.20396 0.05200
C 	C 	0.52193 0.20694 0.27672 0.06100
C 	C 	0.76689 0.13359 0.29037 0.01700
C 	C 	0.77885 0.11804 0.21735 0.01200
C 	C 	0.65053 0.62792 0.39673 0.40200
C 	C 	0.40521 0.29075 0.16179 -0.04100
C 	C 	0.28749 0.29290 0.18725 -0.01100
C 	C 	0.29030 0.24402 0.25556 -0.00300
C 	C 	0.40530 0.20111 0.30013 -0.02900
C 	C 	0.81877 0.62049 0.69080 -0.04800
C 	C 	0.63797 0.17814 0.32128 -0.10300
C 	C 	0.16350 0.65575 0.17878 -0.14100
C 	C 	0.24235 0.71284 0.20541 0.05000
C 	C 	0.23035 0.74640 0.27785 0.04700
C 	C 	0.11999 0.60460 0.29672 0.01300
C 	C 	0.10259 0.60170 0.22451 0.01300
C 	C 	0.61479 0.22997 0.39449 0.40600
C 	C 	0.31183 0.75869 0.15914 -0.05400
C 	C 	0.34190 0.86123 0.18105 -0.03000
C 	C 	0.31062 0.91208 0.24997 -0.03600
C 	C 	0.64450 0.54373 0.72067 -0.05200
C 	C 	0.25754 0.85523 0.29835 -0.05900
C 	C 	0.18396 0.67484 0.32463 -0.12900
C 	C 	0.70193 0.10413 0.89671 0.39600
C 	C 	0.72436 0.68904 0.88771 0.40800
C 	C 	0.12162 0.70312 0.90685 0.40100
C 	C 	0.67685 0.10828 0.10301 0.39600
C 	C 	0.72780 0.71173 0.10677 0.32000
C 	C 	0.57908 0.81749 0.77979 -0.03800
C 	C 	0.09787 0.70492 0.11063 0.42700
C 	C 	0.56455 0.80247 0.69920 -0.04800
C 	C 	0.68770 0.16520 0.82534 -0.11000
C 	C 	0.83542 0.63914 0.77046 -0.04200
C 	C 	0.80327 0.14581 0.78396 0.06000
C 	C 	0.79362 0.14355 0.70847 0.07000
Cr	Cr	0.39294 0.39795 0.50223 1.53900
Cr	Cr	0.39840 0.70850 0.50126 1.52600
Cr	Cr	0.70864 0.39353 0.49646 1.54500
Cr	Cr	0.93788 0.93832 0.00762 1.43900
Cr	Cr	0.62556 0.93722 0.99451 1.49700
Cr	Cr	0.93808 0.62501 0.00119 1.48900
H 	H 	0.60050 0.90541 0.78896 0.00000
H 	H 	0.91535 0.08900 0.61067 0.07700
H 	H 	0.25476 0.82022 0.70302 0.00800
H 	H 	0.47885 0.84607 0.80641 0.01300
H 	H 	0.22942 0.40825 0.89247 0.05000
H 	H 	0.22957 0.83248 0.82970 0.00900
H 	H 	0.20824 0.22961 0.82777 0.04900
H 	H 	0.16240 0.25379 0.69737 0.04800
H 	H 	0.14488 0.45304 0.63284 0.06600
H 	H 	0.54686 0.88845 0.33049 -0.00500
H 	H 	0.79425 0.42325 0.12841 0.05400
H 	H 	0.71849 0.43283 0.70469 0.04600
H 	H 	0.57892 0.91910 0.20260 -0.00100
H 	H 	0.96699 0.20491 0.18272 0.01900
H 	H 	0.03734 0.19632 0.30701 0.13000
H 	H 	0.45570 0.82966 0.68713 0.02000
H 	H 	0.85857 0.10530 0.32275 0.04700
H 	H 	0.40467 0.32347 0.10726 0.04500
H 	H 	0.88302 0.06017 0.19578 0.05400
H 	H 	0.19673 0.32675 0.15333 0.04500
H 	H 	0.20587 0.23419 0.27385 0.07100
H 	H 	0.40631 0.15228 0.35029 0.09200
H 	H 	0.92368 0.53899 0.79153 0.02500
H 	H 	0.07650 0.55974 0.33100 0.06700
H 	H 	0.33136 0.72447 0.10421 0.03900
H 	H 	0.03667 0.56240 0.20462 0.05800
H 	H 	0.58421 0.87898 0.66960 0.00200
H 	H 	0.38459 0.90491 0.14388 0.01000
H 	H 	0.33079 0.99354 0.26691 -0.01100
H 	H 	0.22904 0.90771 0.34902 0.03000
H 	H 	0.86240 0.72364 0.77805 0.00700
H 	H 	0.83965 0.69394 0.65913 0.01300
H 	H 	0.74951 0.45617 0.82203 0.03800
H 	H 	0.89634 0.51057 0.67515 0.03000
H 	H 	0.56684 0.58418 0.82942 0.03700
H 	H 	0.53711 0.56321 0.71068 0.04300
H 	H 	0.21728 0.30739 0.44717 0.13300
H 	H 	0.45014 0.23371 0.69722 0.05200
H 	H 	0.93675 0.14453 0.87065 0.05800
H 	H 	0.47091 0.22287 0.82151 0.05000
H 	H 	0.13734 0.08173 0.79681 0.04900
H 	H 	0.12520 0.06063 0.66676 0.05500
O 	O 	0.50734 0.25569 0.58143 -0.46900
O 	O 	0.83729 0.59324 0.91524 -0.49400
O 	O 	0.06532 0.63531 0.93158 -0.47300
O 	O 	0.28036 0.52738 0.57891 -0.51400
O 	O 	0.06847 0.82862 0.09185 -0.49700
O 	O 	0.79915 0.05720 0.07935 -0.47700
O 	O 	0.58522 0.08018 0.07677 -0.42100
O 	O 	0.62717 0.80948 0.06705 -0.53000
O 	O 	0.81620 0.59641 0.07650 -0.47600
O 	O 	0.04577 0.63824 0.08107 -0.50800
O 	O 	0.83384 0.83352 0.00111 -0.83500
O 	O 	0.52451 0.69582 0.42405 -0.51900
O 	O 	0.26060 0.73961 0.58458 -0.49400
O 	O 	0.53237 0.69505 0.57383 -0.54000
O 	O 	0.74485 0.50343 0.57638 -0.47100
O 	O 	0.69908 0.27650 0.57195 -0.51800
O 	O 	0.49886 0.25652 0.41986 -0.45800
O 	O 	0.27249 0.52815 0.42914 -0.50900
O 	O 	0.25211 0.74044 0.42301 -0.50700
O 	O 	0.95066 0.54455 0.44203 -0.34100
O 	O 	0.98465 0.30500 0.45257 -0.37800
O 	O 	0.17983 0.33264 0.39799 -0.32100
O 	O 	0.73637 0.50426 0.41481 -0.46200
O 	O 	0.69122 0.27727 0.42218 -0.49500
O 	O 	0.49999 0.49999 0.49998 -0.74200
O 	O 	0.08957 0.82545 0.93059 -0.46800
O 	O 	0.81870 0.05426 0.92986 -0.45900
O 	O 	0.60631 0.07701 0.91552 -0.41300
O 	O 	0.64673 0.80654 0.91756 -0.55000
S 	S 	0.00741 0.40359 0.40593 0.61500
