data_crystal

_cell_length_a 10.76753
_cell_length_b 10.66234
_cell_length_c 9.83937
_cell_angle_alpha 89.52101
_cell_angle_beta  91.45300
_cell_angle_gamma 89.14525

_symmetry_space_group_name_	'P 1'
_symmetry_space_group_name_H-M	'P 1'

loop_
_symmetry_equiv_pos_as_xyz
  x,y,z

loop_
_atom_site_label
_atom_site_type_symbol
_atom_site_fract_x
_atom_site_fract_y
_atom_site_fract_z
_atom_site_charge
C 	C 	0.50155 0.26013 0.50040 0.40500
C 	C 	0.49668 0.73986 0.49954 0.40000
C 	C 	0.87254 0.50196 0.50610 -0.11500
C 	C 	0.12732 0.49829 0.49416 -0.11700
C 	C 	0.94352 0.46917 0.62393 0.08500
C 	C 	0.05623 0.53122 0.37643 0.08400
C 	C 	0.42645 0.06886 0.40349 -0.05300
C 	C 	0.56853 0.93153 0.59602 -0.03600
C 	C 	0.41911 0.94050 0.40365 0.19800
C 	C 	0.57288 0.06089 0.59788 0.17300
C 	C 	0.49309 0.87234 0.49948 -0.15600
C 	C 	0.50107 0.12781 0.50081 -0.13500
C 	C 	0.52708 0.60631 0.07167 0.01300
C 	C 	0.47299 0.39368 0.92834 0.01300
C 	C 	0.52721 0.60624 0.92794 0.01600
C 	C 	0.47288 0.39373 0.07206 0.01600
C 	C 	0.25984 0.50020 0.49783 0.37500
C 	C 	0.74010 0.49993 0.50222 0.37900
C 	C 	0.14344 0.71925 0.06264 -0.05600
C 	C 	0.86167 0.28581 0.94253 -0.06000
C 	C 	0.10859 0.69139 0.19656 0.16000
C 	C 	0.89128 0.31139 0.80640 0.16900
C 	C 	0.10741 0.56451 0.24213 -0.11000
C 	C 	0.89222 0.43766 0.75876 -0.10900
C 	C 	0.13771 0.46747 0.15147 0.13500
C 	C 	0.86303 0.53602 0.84825 0.13500
C 	C 	0.17352 0.49744 0.01927 -0.16000
C 	C 	0.82878 0.50795 0.98146 -0.16300
C 	C 	0.17792 0.62169 0.97429 0.18300
C 	C 	0.82678 0.38444 0.02916 0.18800
C 	C 	0.92937 0.53468 0.38526 -0.01900
C 	C 	0.07046 0.46604 0.61524 -0.01900
H 	H 	0.54979 0.69121 0.87385 0.02500
H 	H 	0.45031 0.30877 0.12615 0.02500
H 	H 	0.19725 0.42325 0.94964 0.08300
H 	H 	0.80511 0.58310 0.04993 0.08400
H 	H 	0.87487 0.56375 0.29602 0.06500
H 	H 	0.12499 0.43816 0.70491 0.06400
H 	H 	0.37008 0.12300 0.33053 0.06400
H 	H 	0.62551 0.87692 0.66800 0.04900
H 	H 	0.54935 0.69132 0.12555 0.03100
H 	H 	0.45071 0.30866 0.87446 0.03200
N 	N 	0.49997 0.49997 0.85720 -0.22000
N 	N 	0.50003 0.50003 0.14280 -0.22100
O 	O 	0.49999 0.31675 0.61462 -0.44500
O 	O 	0.50001 0.68325 0.38538 -0.46000
O 	O 	0.49999 0.31678 0.38529 -0.45900
O 	O 	0.50001 0.68322 0.61471 -0.46100
O 	O 	0.31676 0.50000 0.61466 -0.43700
O 	O 	0.68324 0.50000 0.38534 -0.43500
O 	O 	0.31676 0.50002 0.38533 -0.45300
O 	O 	0.68324 0.49998 0.61467 -0.44700
Zn	Zn	0.50000 0.49998 0.65312 1.22600
Zn	Zn	0.50000 0.50002 0.34688 1.22600
O 	O 	0.21460 0.64312 0.84276 -0.29100
H 	H 	0.21648 0.73434 0.82389 0.16300
O 	O 	0.79209 0.36468 0.16165 -0.29100
H 	H 	0.78949 0.27371 0.18165 0.16400
N 	N 	0.14153 0.84684 0.01525 -0.16600
H 	H 	0.05136 0.88303 0.02430 0.09400
H 	H 	0.20098 0.89865 0.07798 0.10700
N 	N 	0.87113 0.15993 0.99469 -0.16400
H 	H 	0.96188 0.12684 0.98128 0.09000
H 	H 	0.81074 0.10363 0.93845 0.09000
O 	O 	0.07327 0.79057 0.27755 -0.28800
H 	H 	0.06653 0.76212 0.37293 0.15500
O 	O 	0.92254 0.21091 0.72536 -0.29100
H 	H 	0.92449 0.23814 0.62912 0.16000
N 	N 	0.12706 0.33843 0.19280 -0.19100
H 	H 	0.19981 0.31777 0.26201 0.09500
H 	H 	0.13910 0.27900 0.11001 0.08500
N 	N 	0.87306 0.66446 0.80455 -0.19200
H 	H 	0.79882 0.68438 0.73701 0.09400
H 	H 	0.86314 0.72503 0.88675 0.08400
O 	O 	0.33761 0.88655 0.31170 -0.29500
H 	H 	0.31274 0.80394 0.34737 0.16500
O 	O 	0.64836 0.12331 0.68968 -0.27600
H 	H 	0.69286 0.06070 0.74861 0.14400
