data_crystal

_cell_length_a 10.99874
_cell_length_b 10.94603
_cell_length_c 18.79607
_cell_angle_alpha 90.45094
_cell_angle_beta  89.43943
_cell_angle_gamma 119.93259

_symmetry_space_group_name_	'P 1'
_symmetry_space_group_name_H-M	'P 1'

loop_
_symmetry_equiv_pos_as_xyz
  x,y,z

loop_
_atom_site_label
_atom_site_type_symbol
_atom_site_fract_x
_atom_site_fract_y
_atom_site_fract_z
_atom_site_charge
O 	O 	0.76650 0.25004 0.57979 -0.47100
O 	O 	0.79857 0.51678 0.57478 -0.51300
C 	C 	0.86686 0.63632 0.60447 0.42100
O 	O 	0.98400 0.73295 0.58109 -0.44500
O 	O 	0.21860 0.70089 0.57476 -0.58800
C 	C 	0.27500 0.63605 0.60209 0.43900
O 	O 	0.24939 0.51535 0.57994 -0.49300
O 	O 	0.98279 0.28090 0.57370 -0.44600
C 	C 	0.85794 0.21946 0.60027 0.43100
O 	O 	0.76660 0.25113 0.41926 -0.46600
O 	O 	0.79866 0.51779 0.42598 -0.52200
C 	C 	0.87019 0.63672 0.39564 0.43400
O 	O 	0.98410 0.73404 0.42057 -0.44700
O 	O 	0.21869 0.70190 0.42596 -0.58400
C 	C 	0.26549 0.63032 0.39443 0.41900
O 	O 	0.24949 0.51644 0.41942 -0.51500
O 	O 	0.98288 0.28191 0.42489 -0.45800
C 	C 	0.86463 0.23483 0.39435 0.41800
Cr	Cr	0.79166 0.39025 0.49993 1.54100
Cr	Cr	0.09852 0.70829 0.50054 1.47200
Cr	Cr	0.10977 0.40143 0.49948 1.48200
O 	O 	0.99998 0.49999 0.49998 -0.66900
C 	C 	0.29618 0.76112 0.71411 -0.01300
H 	H 	0.24489 0.81337 0.69041 0.00700
C 	C 	0.30951 0.76558 0.78775 0.05200
C 	C 	0.35786 0.68207 0.81976 -0.09400
C 	C 	0.38940 0.59308 0.77617 -0.07300
C 	C 	0.39813 0.60919 0.70268 0.12800
C 	C 	0.33776 0.68172 0.67183 -0.17100
C 	C 	0.84198 0.15278 0.81845 -0.11100
C 	C 	0.05217 0.12188 0.80879 -0.18000
C 	C 	0.13658 0.08668 0.76781 0.01300
C 	C 	0.11855 0.06912 0.69470 0.02500
C 	C 	0.02065 0.09320 0.66163 -0.21200
C 	C 	0.93272 0.12655 0.70200 0.20100
C 	C 	0.94254 0.13434 0.77758 0.16800
H 	H 	0.21541 0.07192 0.79327 0.07900
H 	H 	0.17871 0.03540 0.66299 0.03800
H 	H 	0.07771 0.14236 0.86438 0.07600
C 	C 	0.71531 0.12843 0.70871 0.08300
C 	C 	0.73723 0.16653 0.78073 0.05200
C 	C 	0.58494 0.09015 0.67762 -0.04000
C 	C 	0.48878 0.11488 0.71345 0.01000
C 	C 	0.52108 0.17744 0.78011 -0.00200
C 	C 	0.64579 0.20712 0.81299 -0.03000
C 	C 	0.82786 0.14082 0.66801 -0.15100
H 	H 	0.00731 0.07576 0.60476 0.05100
H 	H 	0.66797 0.25903 0.86429 0.06600
H 	H 	0.39142 0.08894 0.68853 0.05000
H 	H 	0.55904 0.04428 0.62479 0.08400
H 	H 	0.44649 0.19710 0.80780 0.06100
C 	C 	0.84897 0.55126 0.72569 0.02800
H 	H 	0.87486 0.47339 0.70633 0.05700
C 	C 	0.83645 0.56502 0.79847 0.03300
H 	H 	0.85251 0.49888 0.83525 0.05600
C 	C 	0.80751 0.66809 0.82310 -0.08700
C 	C 	0.79031 0.75672 0.77565 0.02400
H 	H 	0.76581 0.83543 0.79510 0.01000
C 	C 	0.80567 0.74486 0.70316 0.01900
H 	H 	0.79466 0.81467 0.66667 0.02400
C 	C 	0.83527 0.64248 0.67836 -0.09000
C 	C 	0.25194 0.53533 0.27506 -0.02800
H 	H 	0.20713 0.43089 0.29786 0.03600
C 	C 	0.25603 0.54743 0.20173 0.08400
C 	C 	0.31661 0.68285 0.17097 -0.12300
C 	C 	0.34325 0.80052 0.21460 -0.01800
C 	C 	0.33660 0.78496 0.28853 0.00100
H 	H 	0.35784 0.87358 0.32272 0.00400
C 	C 	0.29640 0.65401 0.31877 -0.12900
C 	C 	0.79922 0.26405 0.27501 0.02500
H 	H 	0.75607 0.32650 0.29658 0.05000
C 	C 	0.79588 0.24427 0.20242 0.02400
H 	H 	0.74589 0.28689 0.16930 0.05400
C 	C 	0.84819 0.16190 0.17360 -0.06000
C 	C 	0.91385 0.10839 0.21743 0.03500
H 	H 	0.95388 0.04308 0.19597 0.10800
C 	C 	0.91978 0.13090 0.29037 0.03700
H 	H 	0.96875 0.08818 0.32412 0.08600
C 	C 	0.85712 0.20378 0.31934 -0.08600
C 	C 	0.96375 0.71881 0.27664 0.12400
H 	H 	0.06896 0.77480 0.29798 -0.08600
C 	C 	0.94826 0.71909 0.20411 0.11700
H 	H 	0.04083 0.77993 0.17151 -0.07200
C 	C 	0.81407 0.65114 0.17468 -0.14700
C 	C 	0.69584 0.57091 0.21813 0.00300
H 	H 	0.59091 0.51779 0.19629 0.04400
C 	C 	0.71192 0.56773 0.29133 0.01200
H 	H 	0.62063 0.50682 0.32478 0.03200
C 	C 	0.84570 0.64628 0.32088 -0.15700
O 	O 	0.89511 0.80686 0.92043 -0.44800
O 	O 	0.87226 0.04697 0.92500 -0.39900
C 	C 	0.80781 0.10307 0.89403 0.41200
O 	O 	0.69143 0.08506 0.91855 -0.40300
O 	O 	0.45149 0.82246 0.92525 -0.51500
C 	C 	0.39818 0.70056 0.89513 0.41100
O 	O 	0.41333 0.60336 0.92044 -0.45500
O 	O 	0.67611 0.62625 0.92675 -0.50700
C 	C 	0.79755 0.69092 0.89766 0.42500
O 	O 	0.89535 0.80987 0.08095 -0.48100
O 	O 	0.87249 0.04976 0.07380 -0.43800
C 	C 	0.80765 0.10624 0.10240 0.41700
O 	O 	0.69168 0.08807 0.07907 -0.42300
O 	O 	0.45172 0.82525 0.07405 -0.54800
C 	C 	0.38993 0.70342 0.10233 0.42400
O 	O 	0.41358 0.60637 0.08096 -0.47100
O 	O 	0.67634 0.62904 0.07555 -0.53100
C 	C 	0.79713 0.69301 0.10410 0.43400
Cr	Cr	0.87479 0.92589 0.00007 1.49400
Cr	Cr	0.57412 0.94867 0.99930 1.51500
Cr	Cr	0.55142 0.62532 0.00092 1.52900
O 	O 	0.66678 0.83329 0.00009 -0.80400
N 	N 	0.20180 0.42180 0.15892 -0.02000
O 	O 	0.21849 0.31733 0.17846 -0.15100
O 	O 	0.13295 0.41027 0.10097 -0.17000
C 	C 	0.37295 0.93881 0.18584 0.14900
O 	O 	0.31809 0.94445 0.13061 -0.28600
O 	O 	0.45779 0.06242 0.22407 -0.19400
H 	H 	0.46810 0.14958 0.19986 0.15200
N 	N 	0.25002 0.83411 0.82894 -0.01600
O 	O 	0.32738 0.93978 0.87047 -0.20100
O 	O 	0.12342 0.80691 0.81532 -0.20400
C 	C 	0.40525 0.47669 0.80526 0.31000
O 	O 	0.31039 0.38380 0.84016 -0.25100
O 	O 	0.52908 0.47484 0.79414 -0.29600
H 	H 	0.54330 0.41777 0.83171 0.15800
N 	N 	0.45487 0.54080 0.65856 -0.01900
O 	O 	0.53978 0.61028 0.60649 -0.13200
O 	O 	0.40174 0.40469 0.66109 -0.11800
