data_crystal

_cell_length_a 7.87591
_cell_length_b 8.54016
_cell_length_c 23.40225
_cell_angle_alpha 93.13196
_cell_angle_beta  84.63741
_cell_angle_gamma 93.46724

_symmetry_space_group_name_	'P 1'
_symmetry_space_group_name_H-M	'P 1'

loop_
_symmetry_equiv_pos_as_xyz
  x,y,z

loop_
_atom_site_label
_atom_site_type_symbol
_atom_site_fract_x
_atom_site_fract_y
_atom_site_fract_z
_atom_site_charge
C 	C 	0.54516 0.79427 0.49897 0.37400
C 	C 	0.44943 0.36029 0.29734 0.07900
C 	C 	0.54810 0.64119 0.76198 -0.09400
C 	C 	0.45074 0.36229 0.23773 -0.09400
C 	C 	0.50277 0.50349 0.79063 0.15300
C 	C 	0.49573 0.50071 0.20949 0.15300
C 	C 	0.56893 0.95785 0.49815 -0.10400
C 	C 	0.43107 0.04217 0.50195 -0.10500
C 	C 	0.50026 0.50042 0.60999 0.35500
C 	C 	0.49975 0.49967 0.39001 0.35500
C 	C 	0.35057 0.45606 0.12350 0.19100
C 	C 	0.45484 0.20573 0.50107 0.37300
C 	C 	0.64709 0.55018 0.87672 0.19100
C 	C 	0.64344 0.54644 0.11671 0.19200
C 	C 	0.35427 0.45963 0.88343 0.19200
C 	C 	0.64359 0.56376 0.05724 -0.04900
C 	C 	0.35375 0.44298 0.94296 -0.04900
C 	C 	0.49827 0.50280 0.03012 0.04100
C 	C 	0.49899 0.50407 0.97009 0.04000
C 	C 	0.35231 0.44040 0.06326 -0.05000
C 	C 	0.64501 0.56638 0.93695 -0.05000
C 	C 	0.78338 0.63938 0.02474 0.01800
C 	C 	0.45732 0.36466 0.76005 -0.09500
C 	C 	0.21382 0.36761 0.97548 0.01800
C 	C 	0.78373 0.64134 0.96443 0.01900
C 	C 	0.21346 0.36564 0.03580 0.01900
C 	C 	0.91569 0.73561 0.05446 0.11500
C 	C 	0.08141 0.27146 0.94579 0.11500
C 	C 	0.91567 0.74040 0.93112 0.11300
C 	C 	0.08147 0.26656 0.06909 0.11300
C 	C 	0.39953 0.21358 0.66928 0.08600
C 	C 	0.60087 0.78766 0.33148 0.08500
C 	C 	0.60188 0.78934 0.67269 0.08900
C 	C 	0.54170 0.63878 0.24042 -0.09500
C 	C 	0.39803 0.21199 0.32655 0.08900
C 	C 	0.01550 0.34328 0.44354 0.14200
C 	C 	0.98450 0.65672 0.55646 0.14200
C 	C 	0.45321 0.36206 0.70058 0.07900
C 	C 	0.54663 0.63993 0.29983 0.07900
C 	C 	0.50110 0.50140 0.67177 -0.11800
C 	C 	0.49898 0.49989 0.32825 -0.11700
C 	C 	0.55020 0.64173 0.70232 0.07800
H 	H 	0.87676 0.82464 0.08716 0.03800
H 	H 	0.40909 0.20398 0.37212 0.04000
H 	H 	0.58119 0.74782 0.78672 0.09600
H 	H 	0.41726 0.25625 0.21271 0.09600
H 	H 	0.69946 0.00825 0.49425 0.10500
H 	H 	0.30054 0.99177 0.50585 0.10500
H 	H 	0.14719 0.31989 0.43644 0.01200
H 	H 	0.85281 0.68011 0.56356 0.01200
H 	H 	0.12017 0.18164 0.91338 0.03800
H 	H 	0.87621 0.82619 0.90319 0.03900
H 	H 	0.12088 0.18116 0.09718 0.03900
H 	H 	0.42438 0.25897 0.78320 0.09700
H 	H 	0.57442 0.74503 0.21758 0.09700
H 	H 	0.40670 0.20546 0.62280 0.04200
H 	H 	0.59482 0.79457 0.37793 0.04200
H 	H 	0.59097 0.79639 0.62708 0.03900
N 	N 	0.49656 0.50087 0.14839 -0.17600
N 	N 	0.50134 0.50478 0.85177 -0.17600
N 	N 	0.95033 0.45795 0.48456 -0.20100
N 	N 	0.04967 0.54205 0.51544 -0.20100
O 	O 	0.38925 0.73857 0.50379 -0.43900
O 	O 	0.79377 0.57519 0.84298 -0.16700
O 	O 	0.78894 0.57120 0.14292 -0.16400
O 	O 	0.20898 0.43450 0.85711 -0.16400
O 	O 	0.06696 0.71112 0.04487 -0.15200
O 	O 	0.93030 0.29688 0.95509 -0.15200
O 	O 	0.06768 0.72237 0.93249 -0.14800
O 	O 	0.92944 0.28401 0.06746 -0.14900
O 	O 	0.34514 0.09801 0.69521 -0.15100
O 	O 	0.65451 0.90396 0.30585 -0.15100
O 	O 	0.65833 0.90552 0.69899 -0.15300
O 	O 	0.61075 0.26143 0.49621 -0.43900
O 	O 	0.34167 0.09630 0.29996 -0.15300
O 	O 	0.91720 0.26584 0.41449 -0.18500
O 	O 	0.08280 0.73414 0.58552 -0.18500
O 	O 	0.67839 0.71162 0.49389 -0.44900
O 	O 	0.32161 0.28838 0.50611 -0.44900
O 	O 	0.35540 0.51352 0.58879 -0.41800
O 	O 	0.64460 0.48648 0.41121 -0.41800
O 	O 	0.64455 0.48657 0.57890 -0.43100
O 	O 	0.35545 0.51343 0.42110 -0.43100
O 	O 	0.20402 0.43101 0.15732 -0.16700
Zn	Zn	0.30693 0.51800 0.50661 1.23200
Zn	Zn	0.69307 0.48200 0.49339 1.23200
