data_crystal

_cell_length_a 19.64657
_cell_length_b 11.31163
_cell_length_c 18.72456
_cell_angle_alpha 90.00160
_cell_angle_beta  89.45712
_cell_angle_gamma 90.00266

_symmetry_space_group_name_	'P 1'
_symmetry_space_group_name_H-M	'P 1'

loop_
_symmetry_equiv_pos_as_xyz
  x,y,z

loop_
_atom_site_label
_atom_site_type_symbol
_atom_site_fract_x
_atom_site_fract_y
_atom_site_fract_z
_atom_site_charge
C 	C 	0.76153 0.52353 0.63908 0.34300
C 	C 	0.25320 0.05674 0.56315 -0.04200
C 	C 	0.74093 0.03775 0.15284 0.39700
C 	C 	0.77384 0.13169 0.85872 0.33100
C 	C 	0.22617 0.13165 0.14129 0.33100
C 	C 	0.27384 0.63170 0.85872 0.32200
C 	C 	0.72617 0.63166 0.14128 0.32200
C 	C 	0.94662 0.35624 0.86135 0.29500
C 	C 	0.05336 0.35624 0.13865 0.29500
C 	C 	0.44663 0.85624 0.86135 0.29000
C 	C 	0.55337 0.85624 0.13865 0.29000
C 	C 	0.68726 0.13235 0.46616 -0.05300
C 	C 	0.24680 0.55674 0.43685 -0.05900
C 	C 	0.31274 0.13234 0.53384 -0.05300
C 	C 	0.18726 0.63235 0.46616 -0.05200
C 	C 	0.81274 0.63235 0.53384 -0.05200
C 	C 	0.69281 0.14523 0.54725 -0.05400
C 	C 	0.30719 0.14523 0.45275 -0.05400
C 	C 	0.19281 0.64523 0.54725 -0.05000
C 	C 	0.80719 0.64523 0.45275 -0.05000
C 	C 	0.75632 0.93920 0.48067 -0.07500
C 	C 	0.24368 0.93920 0.51932 -0.07500
C 	C 	0.25632 0.43920 0.48067 -0.05500
C 	C 	0.75320 0.55674 0.56315 -0.05900
C 	C 	0.74368 0.43920 0.51932 -0.05500
C 	C 	0.76050 0.09055 0.57416 -0.03400
C 	C 	0.23950 0.09055 0.42584 -0.03400
C 	C 	0.26050 0.59055 0.57416 -0.06200
C 	C 	0.73950 0.59055 0.42584 -0.06200
C 	C 	0.75378 0.95812 0.56200 -0.07700
C 	C 	0.24622 0.95812 0.43800 -0.07700
C 	C 	0.25378 0.45811 0.56200 -0.05000
C 	C 	0.23847 0.52353 0.36091 0.34200
C 	C 	0.74622 0.45811 0.43800 -0.05000
C 	C 	0.82338 0.13336 0.52910 -0.05800
C 	C 	0.17662 0.13335 0.47091 -0.05800
C 	C 	0.32338 0.63336 0.52910 -0.05300
C 	C 	0.67662 0.63335 0.47091 -0.05300
C 	C 	0.00375 0.20454 0.45898 -0.05200
C 	C 	0.99625 0.20454 0.54101 -0.05200
C 	C 	0.50375 0.70454 0.45898 -0.05100
C 	C 	0.49625 0.70454 0.54101 -0.05100
C 	C 	0.06449 0.40590 0.47345 -0.05300
C 	C 	0.26153 0.02353 0.63908 0.37300
C 	C 	0.93551 0.40590 0.52655 -0.05300
C 	C 	0.56449 0.90590 0.47345 -0.05100
C 	C 	0.43551 0.90590 0.52655 -0.05100
C 	C 	0.94133 0.39025 0.44548 -0.05100
C 	C 	0.05867 0.39026 0.55452 -0.05100
C 	C 	0.44133 0.89025 0.44548 -0.05000
C 	C 	0.55867 0.89026 0.55452 -0.05000
C 	C 	0.01025 0.33301 0.43091 -0.06100
C 	C 	0.98975 0.33301 0.56909 -0.06100
C 	C 	0.51025 0.83301 0.43091 -0.06300
C 	C 	0.73847 0.02353 0.36091 0.37300
C 	C 	0.48975 0.83301 0.56909 -0.06300
C 	C 	0.81275 0.00604 0.04381 0.19100
C 	C 	0.18715 0.00619 0.95616 0.19100
C 	C 	0.31276 0.50609 0.04381 0.15700
C 	C 	0.68716 0.50618 0.95616 0.15800
C 	C 	0.77441 0.12125 0.64936 0.34600
C 	C 	0.22559 0.12125 0.35064 0.34600
C 	C 	0.27441 0.62125 0.64936 0.34900
C 	C 	0.72559 0.62125 0.35064 0.34900
C 	C 	0.81832 0.02108 0.96404 -0.09700
C 	C 	0.81074 0.13064 0.44834 -0.05000
C 	C 	0.18168 0.02101 0.03595 -0.09700
C 	C 	0.31833 0.52112 0.96405 -0.12500
C 	C 	0.68167 0.52104 0.03594 -0.12500
C 	C 	0.68441 0.03997 0.03592 0.00500
C 	C 	0.31555 0.03981 0.96408 0.00500
C 	C 	0.18443 0.53992 0.03592 -0.03100
C 	C 	0.81555 0.53984 0.96408 -0.03100
C 	C 	0.76284 0.20472 0.06162 -0.02100
C 	C 	0.23726 0.20470 0.93839 -0.02100
C 	C 	0.26280 0.70472 0.06162 -0.02500
C 	C 	0.18926 0.13063 0.55166 -0.05000
C 	C 	0.73724 0.70472 0.93839 -0.02500
C 	C 	0.75055 0.07409 0.07620 -0.13700
C 	C 	0.24945 0.07406 0.92380 -0.13700
C 	C 	0.25055 0.57409 0.07621 -0.11900
C 	C 	0.74944 0.57408 0.92380 -0.11900
C 	C 	0.76087 0.10337 0.93632 -0.03600
C 	C 	0.23913 0.10329 0.06368 -0.03600
C 	C 	0.26087 0.60338 0.93633 -0.02600
C 	C 	0.73913 0.60331 0.06368 -0.02600
C 	C 	0.69413 0.03797 0.95300 -0.04300
C 	C 	0.31074 0.63064 0.44834 -0.05100
C 	C 	0.30585 0.03784 0.04700 -0.04300
C 	C 	0.19414 0.53795 0.95300 -0.07300
C 	C 	0.80584 0.53784 0.04700 -0.07300
C 	C 	0.75753 0.22115 0.97963 -0.07500
C 	C 	0.24252 0.22108 0.02039 -0.07500
C 	C 	0.25750 0.72116 0.97963 -0.07500
C 	C 	0.74252 0.72110 0.02039 -0.07400
C 	C 	0.00598 0.47955 0.03993 -0.05100
C 	C 	0.99409 0.47953 0.96005 -0.05100
C 	C 	0.50601 0.97956 0.03992 -0.10800
C 	C 	0.68927 0.63063 0.55166 -0.05100
C 	C 	0.49411 0.97954 0.96005 -0.10700
C 	C 	0.07481 0.29714 0.00814 -0.10100
C 	C 	0.92511 0.29732 0.99191 -0.10100
C 	C 	0.57483 0.79715 0.00813 -0.10400
C 	C 	0.42512 0.79736 0.99191 -0.10400
C 	C 	0.96086 0.27424 0.06351 0.13500
C 	C 	0.03903 0.27405 0.93656 0.13500
C 	C 	0.46088 0.77424 0.06350 0.13300
C 	C 	0.53904 0.77404 0.93655 0.13300
C 	C 	0.96944 0.34212 0.64511 0.34800
C 	C 	0.74680 0.05674 0.43685 -0.04300
C 	C 	0.03056 0.34212 0.35489 0.34800
C 	C 	0.46944 0.84213 0.64511 0.34900
C 	C 	0.53056 0.84212 0.35489 0.34900
C 	C 	0.02507 0.35229 0.06478 -0.06300
C 	C 	0.97490 0.35230 0.93524 -0.06300
C 	C 	0.52509 0.85230 0.06477 -0.05300
C 	C 	0.47491 0.85230 0.93524 -0.05300
C 	C 	0.75907 0.53775 0.84716 0.35500
C 	C 	0.24093 0.53775 0.15284 0.35500
C 	C 	0.25907 0.03774 0.84716 0.39700
Cr	Cr	0.88569 0.49286 0.74531 1.51100
Cr	Cr	0.11188 0.17859 0.24699 1.51300
Cr	Cr	0.38812 0.67859 0.75301 1.51200
Cr	Cr	0.61188 0.67859 0.24699 1.51200
Cr	Cr	0.11431 0.49286 0.25469 1.51100
Cr	Cr	0.38569 0.99286 0.74531 1.50100
Cr	Cr	0.61431 0.99286 0.25469 1.50100
Cr	Cr	0.72988 0.33227 0.74819 1.51400
Cr	Cr	0.27012 0.33227 0.25181 1.51400
Cr	Cr	0.22988 0.83227 0.74819 1.51200
Cr	Cr	0.77012 0.83227 0.25181 1.51200
Cr	Cr	0.88812 0.17859 0.75301 1.51300
H 	H 	0.86409 0.06775 0.53875 0.04800
H 	H 	0.20385 0.91020 0.41183 0.03200
H 	H 	0.88539 0.35768 0.00708 0.04300
H 	H 	0.57402 0.79718 0.89119 -0.00400
H 	H 	0.42593 0.79757 0.10885 -0.00400
H 	H 	0.07401 0.29719 0.89120 -0.00100
H 	H 	0.92590 0.29759 0.10884 -0.00100
H 	H 	0.90162 0.21751 0.97115 0.07700
H 	H 	0.09826 0.21730 0.02892 0.07800
H 	H 	0.40157 0.71761 0.97117 0.07800
H 	H 	0.59830 0.71734 0.02892 0.07800
H 	H 	0.64891 0.10144 0.57364 0.04400
H 	H 	0.29614 0.41020 0.58817 0.03500
H 	H 	0.35109 0.10144 0.42635 0.04400
H 	H 	0.14891 0.60144 0.57364 0.03100
H 	H 	0.85109 0.60144 0.42635 0.03100
H 	H 	0.72178 0.86898 0.46446 0.03700
H 	H 	0.27822 0.86898 0.53553 0.03700
H 	H 	0.22178 0.36898 0.46446 0.03600
H 	H 	0.77822 0.36898 0.53553 0.03600
H 	H 	0.70559 0.92416 0.58538 0.03000
H 	H 	0.29440 0.92416 0.41461 0.03000
H 	H 	0.20559 0.42416 0.58538 0.03100
H 	H 	0.70385 0.41020 0.41183 0.03500
H 	H 	0.79440 0.42416 0.41461 0.03100
H 	H 	0.85495 0.09040 0.42010 0.04300
H 	H 	0.14505 0.09039 0.57990 0.04300
H 	H 	0.35495 0.59040 0.42010 0.03600
H 	H 	0.64505 0.59039 0.57990 0.03600
H 	H 	0.84220 0.21939 0.54653 0.03700
H 	H 	0.15780 0.21938 0.45348 0.03700
H 	H 	0.34220 0.71939 0.54653 0.03500
H 	H 	0.65780 0.71938 0.45348 0.03500
H 	H 	0.63823 0.09607 0.45184 0.04800
H 	H 	0.04629 0.15023 0.44149 0.04100
H 	H 	0.36177 0.09606 0.54815 0.04800
H 	H 	0.13823 0.59607 0.45184 0.03700
H 	H 	0.86177 0.59606 0.54815 0.03700
H 	H 	0.86901 0.07810 0.11926 0.15300
H 	H 	0.13101 0.07806 0.88050 0.15300
H 	H 	0.36900 0.57816 0.11928 0.14700
H 	H 	0.63099 0.57810 0.88056 0.14700
H 	H 	0.97795 0.12980 0.11829 0.14000
H 	H 	0.02178 0.12952 0.88189 0.14000
H 	H 	0.47801 0.62979 0.11824 0.13700
H 	H 	0.95371 0.15022 0.55851 0.04100
H 	H 	0.52179 0.62950 0.88188 0.13600
H 	H 	0.80417 0.22104 0.42688 0.03100
H 	H 	0.19583 0.22104 0.57312 0.03100
H 	H 	0.30417 0.72104 0.42688 0.03100
H 	H 	0.69583 0.72104 0.57312 0.03100
H 	H 	0.54629 0.65023 0.44149 0.03800
H 	H 	0.45371 0.65022 0.55851 0.03800
H 	H 	0.95907 0.16086 0.43503 0.03500
H 	H 	0.04093 0.16087 0.56497 0.03500
H 	H 	0.45907 0.66086 0.43503 0.03200
H 	H 	0.13591 0.06774 0.46125 0.04800
H 	H 	0.54093 0.66087 0.56497 0.03200
H 	H 	0.61634 0.89133 0.45390 0.03000
H 	H 	0.38366 0.89133 0.54611 0.03000
H 	H 	0.11634 0.39133 0.45390 0.03600
H 	H 	0.88366 0.39133 0.54611 0.03600
H 	H 	0.60055 0.83483 0.57503 0.02900
H 	H 	0.39945 0.83482 0.42496 0.02900
H 	H 	0.10055 0.33483 0.57503 0.03200
H 	H 	0.89945 0.33482 0.42496 0.03200
H 	H 	0.93803 0.47744 0.41853 0.03500
H 	H 	0.36409 0.56775 0.53875 0.04000
H 	H 	0.06197 0.47744 0.58147 0.03500
H 	H 	0.43803 0.97744 0.41853 0.02800
H 	H 	0.56197 0.97744 0.58147 0.02800
H 	H 	0.94794 0.49985 0.53667 0.04000
H 	H 	0.05206 0.49985 0.46333 0.04000
H 	H 	0.44794 0.99985 0.53667 0.03200
H 	H 	0.55206 0.99985 0.46333 0.03200
H 	H 	0.80421 0.91472 0.05483 -0.02100
H 	H 	0.19533 0.91478 0.94499 -0.02100
H 	H 	0.30427 0.41475 0.05484 0.00400
H 	H 	0.63591 0.56774 0.46125 0.04000
H 	H 	0.69541 0.41479 0.94502 0.00400
H 	H 	0.68772 0.22081 0.44094 0.03300
H 	H 	0.31229 0.22081 0.55907 0.03300
H 	H 	0.18772 0.72081 0.44094 0.03000
H 	H 	0.81229 0.72081 0.55907 0.03000
H 	H 	0.87036 0.04932 0.94948 0.08400
H 	H 	0.12965 0.04913 0.05062 0.08400
H 	H 	0.37037 0.54939 0.94948 0.08500
H 	H 	0.62963 0.54917 0.05060 0.08500
H 	H 	0.81443 0.93359 0.93788 0.03200
H 	H 	0.80876 0.90885 0.46893 0.03700
H 	H 	0.18562 0.93346 0.06202 0.03200
H 	H 	0.31446 0.43363 0.93789 0.05800
H 	H 	0.68559 0.43350 0.06203 0.05800
H 	H 	0.66555 0.95810 0.05928 0.00000
H 	H 	0.33436 0.95795 0.94067 0.00000
H 	H 	0.16559 0.45804 0.05928 0.02800
H 	H 	0.83437 0.45799 0.94066 0.02800
H 	H 	0.69642 0.94656 0.93194 0.01100
H 	H 	0.30353 0.94645 0.06808 0.01100
H 	H 	0.19645 0.44654 0.93194 0.03500
H 	H 	0.19124 0.90884 0.53106 0.03700
H 	H 	0.80351 0.44644 0.06807 0.03500
H 	H 	0.72384 0.25775 0.09039 0.02400
H 	H 	0.27631 0.25766 0.90968 0.02400
H 	H 	0.22379 0.75770 0.09038 0.02200
H 	H 	0.77628 0.75769 0.90966 0.02200
H 	H 	0.81289 0.23466 0.08100 0.02700
H 	H 	0.18724 0.23473 0.91898 0.02700
H 	H 	0.31283 0.73469 0.08101 0.02700
H 	H 	0.68721 0.73474 0.91899 0.02700
H 	H 	0.79257 0.28765 0.95849 0.03800
H 	H 	0.30876 0.40885 0.46893 0.04100
H 	H 	0.20746 0.28758 0.04151 0.03800
H 	H 	0.29254 0.78767 0.95850 0.03700
H 	H 	0.70750 0.78765 0.04152 0.03700
H 	H 	0.70502 0.25078 0.97198 0.04800
H 	H 	0.29504 0.25063 0.02808 0.04800
H 	H 	0.20500 0.75078 0.97198 0.04700
H 	H 	0.79507 0.75059 0.02806 0.04700
H 	H 	0.64575 0.10833 0.04877 0.02900
H 	H 	0.35428 0.10807 0.95124 0.02900
H 	H 	0.14574 0.60823 0.04877 0.03300
H 	H 	0.69124 0.40884 0.53106 0.04100
H 	H 	0.85427 0.60811 0.95124 0.03300
H 	H 	0.68756 0.23741 0.56290 0.04000
H 	H 	0.31245 0.23741 0.43711 0.04000
H 	H 	0.18756 0.73741 0.56290 0.03700
H 	H 	0.81245 0.73741 0.43711 0.03700
H 	H 	0.65071 0.08291 0.92682 0.03700
H 	H 	0.34929 0.08273 0.07317 0.03700
H 	H 	0.15072 0.58286 0.92683 0.03700
H 	H 	0.84928 0.58271 0.07318 0.03700
H 	H 	0.04511 0.54562 0.05229 0.03600
H 	H 	0.79614 0.91020 0.58817 0.03200
H 	H 	0.95500 0.54567 0.94768 0.03600
H 	H 	0.54514 0.04562 0.05228 0.06900
H 	H 	0.45502 0.04568 0.94767 0.06900
H 	H 	0.95908 0.50909 0.06830 0.03800
H 	H 	0.04102 0.50894 0.93166 0.03800
H 	H 	0.45911 0.00911 0.06830 0.07300
H 	H 	0.54104 0.00894 0.93165 0.07300
H 	H 	0.61461 0.85742 0.99294 0.04100
H 	H 	0.38544 0.85778 0.00711 0.04100
H 	H 	0.11460 0.35740 0.99296 0.04300
O 	O 	0.95721 0.44941 0.66548 -0.47400
O 	O 	0.16748 0.09530 0.16400 -0.45700
O 	O 	0.33252 0.59530 0.83600 -0.46200
O 	O 	0.66748 0.59530 0.16400 -0.46200
O 	O 	0.94638 0.25394 0.82694 -0.47900
O 	O 	0.05362 0.25394 0.17306 -0.47900
O 	O 	0.44638 0.75394 0.82694 -0.48000
O 	O 	0.55362 0.75394 0.17306 -0.48000
O 	O 	0.83456 0.33457 0.74884 -0.71900
O 	O 	0.16544 0.33457 0.25116 -0.71900
O 	O 	0.33456 0.83457 0.74884 -0.72500
O 	O 	0.04279 0.44941 0.33452 -0.47400
O 	O 	0.66544 0.83457 0.25116 -0.72500
O 	O 	0.82073 0.54124 0.66825 -0.50300
O 	O 	0.17927 0.54124 0.33175 -0.50300
O 	O 	0.32073 0.04124 0.66825 -0.49200
O 	O 	0.67927 0.04124 0.33175 -0.49200
O 	O 	0.71424 0.45506 0.66371 -0.46500
O 	O 	0.28576 0.45506 0.33629 -0.46500
O 	O 	0.21424 0.95506 0.66371 -0.49700
O 	O 	0.78576 0.95506 0.33629 -0.49700
O 	O 	0.73678 0.20487 0.67591 -0.50800
O 	O 	0.45721 0.94941 0.66548 -0.48200
O 	O 	0.26322 0.20487 0.32409 -0.50800
O 	O 	0.23678 0.70487 0.67591 -0.51300
O 	O 	0.76322 0.70487 0.32409 -0.51300
O 	O 	0.83307 0.08759 0.67349 -0.46000
O 	O 	0.16693 0.08759 0.32651 -0.46000
O 	O 	0.33307 0.58759 0.67349 -0.46900
O 	O 	0.66693 0.58759 0.32651 -0.46900
O 	O 	0.94689 0.24680 0.67630 -0.50700
O 	O 	0.05311 0.24680 0.32370 -0.50700
O 	O 	0.44689 0.74680 0.67630 -0.51000
O 	O 	0.54279 0.94941 0.33452 -0.48200
O 	O 	0.55311 0.74680 0.32370 -0.51000
O 	O 	0.95665 0.45712 0.82798 -0.44400
O 	O 	0.04335 0.45712 0.17202 -0.44400
O 	O 	0.45665 0.95712 0.82798 -0.45500
O 	O 	0.54335 0.95712 0.17202 -0.45500
O 	O 	0.82022 0.54839 0.81889 -0.51700
O 	O 	0.17978 0.54839 0.18111 -0.51700
O 	O 	0.32022 0.04839 0.81889 -0.50700
O 	O 	0.67978 0.04839 0.18111 -0.50700
O 	O 	0.71368 0.46277 0.82621 -0.47200
O 	O 	0.73626 0.21201 0.82656 -0.49200
O 	O 	0.28632 0.46277 0.17379 -0.47200
O 	O 	0.21368 0.96277 0.82621 -0.50700
O 	O 	0.78632 0.96277 0.17379 -0.50600
O 	O 	0.87557 0.03143 0.07501 -0.28100
O 	O 	0.12438 0.03240 0.92511 -0.28100
O 	O 	0.37558 0.53156 0.07502 -0.28200
O 	O 	0.62439 0.53222 0.92507 -0.28200
O 	O 	0.97990 0.15444 0.06756 -0.24800
O 	O 	0.01982 0.15431 0.93259 -0.24800
O 	O 	0.47991 0.65444 0.06752 -0.24900
O 	O 	0.26374 0.21201 0.17344 -0.49200
O 	O 	0.51984 0.65429 0.93259 -0.24900
O 	O 	0.23626 0.71201 0.82656 -0.49400
O 	O 	0.76374 0.71201 0.17344 -0.49400
O 	O 	0.83252 0.09530 0.83600 -0.45700
