data_crystal

_cell_length_a 18.94262
_cell_length_b 10.91974
_cell_length_c 18.81153
_cell_angle_alpha 90.21419
_cell_angle_beta  89.97601
_cell_angle_gamma 90.14873

_symmetry_space_group_name_	'P 1'
_symmetry_space_group_name_H-M	'P 1'

loop_
_symmetry_equiv_pos_as_xyz
  x,y,z

loop_
_atom_site_label
_atom_site_type_symbol
_atom_site_fract_x
_atom_site_fract_y
_atom_site_fract_z
_atom_site_charge
O 	O 	0.78751 0.04261 0.67041 -0.52500
O 	O 	0.21249 0.04261 0.32959 -0.52200
O 	O 	0.28751 0.54261 0.67041 -0.49000
O 	O 	0.71249 0.54261 0.32959 -0.49000
O 	O 	0.76567 0.29209 0.67509 -0.53100
O 	O 	0.23433 0.29209 0.32491 -0.53200
O 	O 	0.26567 0.79209 0.67509 -0.52400
O 	O 	0.73433 0.79209 0.32491 -0.52800
C 	C 	0.73101 0.37865 0.64671 0.42000
C 	C 	0.27220 0.37186 0.35649 0.43100
C 	C 	0.23048 0.87698 0.64610 0.41600
C 	C 	0.76895 0.87906 0.35321 0.41700
O 	O 	0.67022 0.40902 0.66856 -0.48700
O 	O 	0.32978 0.40902 0.33144 -0.49100
O 	O 	0.17022 0.90902 0.66856 -0.47300
O 	O 	0.82978 0.90902 0.33144 -0.47900
O 	O 	0.55658 0.25159 0.67498 -0.53300
O 	O 	0.44342 0.25159 0.32502 -0.53200
O 	O 	0.05658 0.75159 0.67498 -0.53000
O 	O 	0.94342 0.75159 0.32502 -0.53000
C 	C 	0.53104 0.15537 0.64716 0.43200
C 	C 	0.46124 0.15419 0.35720 0.43100
C 	C 	0.03658 0.65412 0.64374 0.43900
C 	C 	0.96881 0.65568 0.35296 0.43500
O 	O 	0.54589 0.04967 0.67003 -0.50300
O 	O 	0.45411 0.04967 0.32997 -0.50500
O 	O 	0.04589 0.54967 0.67003 -0.49300
O 	O 	0.95411 0.54967 0.32997 -0.48900
O 	O 	0.68134 0.95786 0.67650 -0.52100
O 	O 	0.31866 0.95786 0.32350 -0.52200
O 	O 	0.18134 0.45786 0.67650 -0.53400
O 	O 	0.81866 0.45786 0.32350 -0.52900
C 	C 	0.74008 0.97426 0.64521 0.46000
C 	C 	0.25953 0.97364 0.35426 0.46000
C 	C 	0.24205 0.46641 0.64843 0.42900
C 	C 	0.75994 0.47476 0.35481 0.42700
O 	O 	0.78738 0.04401 0.83094 -0.51200
O 	O 	0.21262 0.04401 0.16906 -0.51200
O 	O 	0.28738 0.54401 0.83094 -0.47600
O 	O 	0.71262 0.54401 0.16906 -0.43500
O 	O 	0.76554 0.29339 0.82391 -0.53100
O 	O 	0.23446 0.29339 0.17609 -0.52400
O 	O 	0.26554 0.79339 0.82391 -0.52300
O 	O 	0.73446 0.79339 0.17609 -0.53200
C 	C 	0.73074 0.38118 0.85111 0.42800
C 	C 	0.26976 0.37950 0.14812 0.43200
C 	C 	0.22959 0.87826 0.85238 0.42300
C 	C 	0.76975 0.87946 0.14813 0.42200
O 	O 	0.67009 0.41041 0.82909 -0.47800
O 	O 	0.32991 0.41041 0.17091 -0.47500
O 	O 	0.17009 0.91041 0.82909 -0.46700
O 	O 	0.82991 0.91041 0.17091 -0.46900
O 	O 	0.55645 0.25289 0.82379 -0.50900
O 	O 	0.44355 0.25289 0.17621 -0.51800
O 	O 	0.05645 0.75289 0.82379 -0.51600
O 	O 	0.94355 0.75289 0.17621 -0.52000
C 	C 	0.53025 0.15761 0.85318 0.41100
C 	C 	0.46985 0.15745 0.14691 0.40900
C 	C 	0.02975 0.65697 0.85292 0.40900
C 	C 	0.96983 0.65717 0.14676 0.41200
O 	O 	0.54575 0.05107 0.83056 -0.49100
O 	O 	0.45425 0.05107 0.16944 -0.48800
O 	O 	0.04575 0.55107 0.83056 -0.47500
O 	O 	0.95425 0.55107 0.16944 -0.47300
O 	O 	0.68121 0.95915 0.82532 -0.51300
O 	O 	0.31879 0.95915 0.17468 -0.50900
O 	O 	0.18121 0.45915 0.82532 -0.52200
O 	O 	0.81879 0.45915 0.17468 -0.47500
C 	C 	0.74043 0.97438 0.85561 0.46200
C 	C 	0.25895 0.97159 0.14562 0.46100
C 	C 	0.24059 0.47389 0.85549 0.43000
C 	C 	0.77217 0.51987 0.13839 0.31200
Cr	Cr	0.77195 0.16948 0.75010 1.53900
Cr	Cr	0.22805 0.16948 0.24990 1.53900
Cr	Cr	0.27195 0.66948 0.75010 1.54100
Cr	Cr	0.72805 0.66948 0.24990 1.53700
Cr	Cr	0.61493 0.32334 0.74917 1.54200
Cr	Cr	0.38507 0.32334 0.25083 1.54000
Cr	Cr	0.11493 0.82334 0.74917 1.54200
Cr	Cr	0.88507 0.82334 0.25083 1.54100
Cr	Cr	0.61659 0.01062 0.75061 1.53000
Cr	Cr	0.38341 0.01062 0.24939 1.53000
Cr	Cr	0.11659 0.51062 0.75061 1.54000
Cr	Cr	0.88341 0.51062 0.24939 1.53800
O 	O 	0.66782 0.16781 0.74996 -0.75400
O 	O 	0.33218 0.16781 0.25004 -0.75500
O 	O 	0.16782 0.66781 0.74996 -0.74800
O 	O 	0.83218 0.66781 0.25004 -0.75500
C 	C 	0.47258 0.15935 0.43333 -0.13400
C 	C 	0.49284 0.16566 0.58057 -0.13300
C 	C 	0.00600 0.66548 0.42018 -0.13700
C 	C 	0.02278 0.65875 0.56800 -0.14100
C 	C 	0.48514 0.27041 0.46773 0.04900
C 	C 	0.49629 0.27333 0.54031 0.04900
C 	C 	0.00414 0.77355 0.46062 0.05500
C 	C 	0.01401 0.77049 0.53349 0.05800
C 	C 	0.46543 0.05960 0.54841 -0.02000
C 	C 	0.45614 0.05607 0.47505 -0.02100
C 	C 	0.03578 0.55365 0.52640 0.01100
C 	C 	0.02926 0.55769 0.45295 0.01000
C 	C 	0.54126 0.36294 0.45345 -0.08800
C 	C 	0.55444 0.36513 0.53290 -0.08900
C 	C 	0.94783 0.86840 0.46706 -0.08900
C 	C 	0.95955 0.86618 0.54672 -0.08800
H 	H 	0.45839 0.97587 0.57834 0.06200
H 	H 	0.43911 0.97079 0.45095 0.06400
H 	H 	0.04849 0.46678 0.55053 0.03300
H 	H 	0.03461 0.47302 0.42325 0.03300
H 	H 	0.89522 0.83209 0.45158 0.06800
H 	H 	0.98301 0.95241 0.56774 0.05400
H 	H 	0.51919 0.45019 0.43298 0.04400
H 	H 	0.60659 0.32630 0.54738 0.06300
H 	H 	0.58618 0.32512 0.42229 0.05500
H 	H 	0.54124 0.45430 0.55823 0.04700
H 	H 	0.96325 0.95661 0.44210 0.05600
H 	H 	0.91331 0.83114 0.57700 0.06000
C 	C 	0.69580 0.87039 0.53616 0.00900
C 	C 	0.29722 0.85718 0.46061 0.00900
C 	C 	0.19585 0.36599 0.53993 0.00400
C 	C 	0.80346 0.36957 0.46325 0.00600
H 	H 	0.65707 0.81948 0.56652 0.03300
H 	H 	0.33184 0.80026 0.42880 0.03200
H 	H 	0.14701 0.34151 0.56617 0.02800
H 	H 	0.84167 0.31815 0.43250 0.02800
C 	C 	0.69739 0.85822 0.46256 -0.00200
C 	C 	0.29536 0.84232 0.53391 -0.00400
C 	C 	0.19996 0.35685 0.46633 0.00400
C 	C 	0.80189 0.35688 0.53680 0.00300
H 	H 	0.66184 0.79391 0.43720 0.03600
H 	H 	0.32606 0.76938 0.55743 0.03900
H 	H 	0.15530 0.32133 0.43675 0.02800
H 	H 	0.83694 0.29187 0.56168 0.03000
C 	C 	0.74801 0.92286 0.42294 -0.08100
C 	C 	0.25020 0.91563 0.57536 -0.07700
C 	C 	0.26159 0.39467 0.43165 -0.12000
C 	C 	0.75196 0.42213 0.57697 -0.11800
C 	C 	0.79137 0.00916 0.45625 -0.03300
C 	C 	0.21073 0.00843 0.54385 -0.03000
C 	C 	0.32018 0.43446 0.47140 0.00600
C 	C 	0.70924 0.50933 0.54423 0.00300
H 	H 	0.82976 0.06225 0.42666 0.03200
H 	H 	0.17606 0.06666 0.57487 0.03500
H 	H 	0.36982 0.45940 0.44669 0.03700
H 	H 	0.67140 0.56295 0.57424 0.03500
C 	C 	0.79190 0.01733 0.52911 -0.02100
C 	C 	0.21113 0.02082 0.47125 -0.01800
C 	C 	0.31653 0.44110 0.54409 0.00700
C 	C 	0.70878 0.51828 0.47138 0.00400
H 	H 	0.82925 0.07985 0.55328 0.03400
H 	H 	0.17870 0.09211 0.44850 0.03800
H 	H 	0.36203 0.47585 0.57275 0.03600
H 	H 	0.67213 0.58187 0.44763 0.03500
C 	C 	0.74510 0.94669 0.56990 -0.09700
C 	C 	0.25344 0.94426 0.42895 -0.09500
C 	C 	0.25308 0.41423 0.57846 -0.12000
C 	C 	0.75483 0.44706 0.43005 -0.12000
C 	C 	0.48954 0.05764 0.96350 -0.00200
C 	C 	0.50755 0.05674 0.03570 0.00100
C 	C 	0.99277 0.55128 0.96295 0.01300
C 	C 	0.00637 0.55212 0.03606 0.02500
C 	C 	0.50131 0.16668 0.07477 -0.10800
C 	C 	0.49884 0.16761 0.92532 -0.09800
C 	C 	0.00097 0.66391 0.07422 -0.10000
C 	C 	0.99733 0.66289 0.92491 -0.10800
C 	C 	0.50210 0.28030 0.03835 0.01700
C 	C 	0.50106 0.28078 0.96303 0.02000
C 	C 	0.00284 0.77652 0.03692 0.02400
C 	C 	0.99380 0.77562 0.96198 0.02400
C 	C 	0.78203 0.03161 0.97294 -0.01800
C 	C 	0.28570 0.02284 0.02346 -0.01200
C 	C 	0.28565 0.52683 0.97218 0.00600
C 	C 	0.79661 0.55119 0.01200 -0.02700
H 	H 	0.80822 0.11022 0.94949 0.05700
H 	H 	0.31398 0.10272 0.04308 0.04300
H 	H 	0.31402 0.60290 0.94846 0.06000
H 	H 	0.82672 0.63235 0.02622 0.04300
C 	C 	0.78438 0.01940 0.04570 -0.00800
C 	C 	0.27874 0.00471 0.95067 -0.00800
C 	C 	0.28717 0.51635 0.04497 0.02600
C 	C 	0.78699 0.52060 0.94055 0.03200
C 	C 	0.75065 0.91835 0.07717 -0.08000
C 	C 	0.24187 0.90155 0.92663 -0.07100
C 	C 	0.25094 0.41853 0.07709 -0.10600
C 	C 	0.74740 0.41583 0.92335 -0.12000
C 	C 	0.71071 0.83672 0.03530 -0.00000
C 	C 	0.21070 0.81927 0.97468 0.00300
C 	C 	0.20889 0.33927 0.03574 0.01100
C 	C 	0.71727 0.34356 0.97669 0.01600
H 	H 	0.68496 0.75797 0.05901 0.05400
H 	H 	0.18099 0.74093 0.95513 0.04300
H 	H 	0.18117 0.26300 0.05994 0.05400
H 	H 	0.68587 0.26370 0.96260 0.03300
C 	C 	0.70779 0.85004 0.96209 0.02400
C 	C 	0.21619 0.83914 0.04741 0.02800
C 	C 	0.20622 0.35170 0.96245 0.02000
C 	C 	0.72533 0.37531 0.04762 0.00300
C 	C 	0.74584 0.94596 0.93048 -0.09000
C 	C 	0.25438 0.94068 0.07143 -0.08300
C 	C 	0.24660 0.44425 0.93022 -0.10700
C 	C 	0.76519 0.47991 0.06526 -0.05600
C 	C 	0.82418 0.10943 0.08583 0.08800
N 	N 	0.85623 0.18137 0.11771 -0.12200
C 	C 	0.30799 0.09330 0.90194 0.06900
N 	N 	0.33131 0.16434 0.86286 -0.11400
C 	C 	0.32768 0.60613 0.08467 0.10000
N 	N 	0.36008 0.67802 0.11623 -0.10800
C 	C 	0.81541 0.59950 0.88611 0.06300
N 	N 	0.83802 0.66292 0.84247 -0.11400
C 	C 	0.66734 0.76249 0.92102 0.08900
N 	N 	0.63483 0.69238 0.88826 -0.11300
C 	C 	0.18292 0.75558 0.09649 0.07700
N 	N 	0.15677 0.68875 0.13622 -0.10600
C 	C 	0.16432 0.26555 0.92189 0.08800
N 	N 	0.13085 0.19628 0.88949 -0.11600
C 	C 	0.69172 0.30037 0.10111 0.09300
N 	N 	0.66494 0.24018 0.14391 -0.12300
C 	C 	0.45459 0.94941 0.92932 0.14400
H 	H 	0.44359 0.94826 0.87281 0.02900
O 	O 	0.43155 0.86464 0.96465 -0.16700
C 	C 	0.53956 0.94629 0.06947 0.14400
H 	H 	0.55921 0.95114 0.12358 0.02600
O 	O 	0.54865 0.85116 0.03657 -0.17500
C 	C 	0.97026 0.43676 0.92513 0.10800
H 	H 	0.93414 0.44366 0.88057 0.02100
O 	O 	0.99392 0.33615 0.93974 -0.18800
C 	C 	0.02780 0.43741 0.07290 0.11200
H 	H 	0.00060 0.35152 0.06363 0.03500
O 	O 	0.07563 0.43960 0.11640 -0.18300
C 	C 	0.50806 0.39656 0.07977 0.09900
H 	H 	0.53768 0.39787 0.12914 0.02000
O 	O 	0.47840 0.49006 0.06098 -0.17700
C 	C 	0.50059 0.39919 0.92434 0.11200
H 	H 	0.53524 0.47339 0.94067 0.03700
O 	O 	0.46016 0.41531 0.87471 -0.18600
C 	C 	0.02581 0.89016 0.07513 0.10700
H 	H 	0.02480 0.89609 0.13250 0.02400
O 	O 	0.05272 0.97561 0.04327 -0.15400
C 	C 	0.96972 0.88694 0.92291 0.10800
H 	H 	0.96684 0.88747 0.86545 0.02500
O 	O 	0.94680 0.97644 0.95428 -0.15500
