data_crystal

_cell_length_a 28.02702
_cell_length_b 7.22476
_cell_length_c 17.19984
_cell_angle_alpha 90.21883
_cell_angle_beta  101.33720
_cell_angle_gamma 89.80543

_symmetry_space_group_name_	'P 1'
_symmetry_space_group_name_H-M	'P 1'

loop_
_symmetry_equiv_pos_as_xyz
  x,y,z

loop_
_atom_site_label
_atom_site_type_symbol
_atom_site_fract_x
_atom_site_fract_y
_atom_site_fract_z
_atom_site_charge
O 	O 	0.00070 0.43651 0.85792 -0.46900
O 	O 	0.99930 0.56349 0.14208 -0.46900
O 	O 	0.99930 0.93651 0.64208 -0.47000
O 	O 	0.00070 0.06349 0.35792 -0.47000
O 	O 	0.93008 0.76638 0.72189 -0.48400
O 	O 	0.06992 0.23362 0.27811 -0.48400
O 	O 	0.06992 0.26638 0.77811 -0.48400
O 	O 	0.93008 0.73362 0.22189 -0.48400
C 	C 	0.91073 0.59796 0.70898 0.34500
C 	C 	0.08927 0.40204 0.29102 0.34500
C 	C 	0.08936 0.09747 0.79034 0.34300
C 	C 	0.91063 0.90253 0.20966 0.34300
O 	O 	0.99618 0.76623 0.86231 -0.47000
O 	O 	0.00382 0.23377 0.13769 -0.47000
O 	O 	0.00382 0.26623 0.63769 -0.47300
O 	O 	0.99618 0.73377 0.36231 -0.47300
O 	O 	0.06587 0.93646 0.78350 -0.47700
O 	O 	0.93413 0.06354 0.21650 -0.47700
O 	O 	0.93413 0.43646 0.71650 -0.47800
O 	O 	0.06587 0.56354 0.28350 -0.47800
C 	C 	0.99848 0.59660 0.89446 0.34200
C 	C 	0.00152 0.40340 0.10554 0.34200
C 	C 	0.00152 0.09629 0.60563 0.34200
C 	C 	0.99848 0.90371 0.39437 0.34200
O 	O 	0.02279 0.60302 0.72398 -0.60800
O 	O 	0.97721 0.39698 0.27602 -0.60800
O 	O 	0.97721 0.10302 0.77602 -0.60500
O 	O 	0.02279 0.89698 0.22398 -0.60500
V 	V 	0.99577 0.87790 0.75483 1.79900
V 	V 	0.00423 0.12210 0.24517 1.79900
V 	V 	0.00423 0.37790 0.74517 1.80000
V 	V 	0.99577 0.62210 0.25483 1.80000
C 	C 	0.00170 0.08228 0.51965 -0.09000
C 	C 	0.99830 0.91772 0.48035 -0.09000
C 	C 	0.99831 0.58249 0.98054 -0.08800
C 	C 	0.00169 0.41751 0.01946 -0.08800
H 	H 	0.00448 0.21048 0.48808 0.08700
H 	H 	0.99552 0.78952 0.51192 0.08700
H 	H 	0.99554 0.71078 0.01250 0.08800
H 	H 	0.00446 0.28922 0.98750 0.08800
C 	C 	0.68486 0.00510 0.03449 0.18000
C 	C 	0.31514 0.99490 0.96551 0.18000
C 	C 	0.31700 0.42496 0.47354 0.17800
C 	C 	0.68300 0.57503 0.52646 0.17800
O 	O 	0.71611 0.05751 0.98826 -0.19200
O 	O 	0.28389 0.94249 0.01174 -0.19200
O 	O 	0.28807 0.37956 0.52461 -0.19500
O 	O 	0.71193 0.62044 0.47539 -0.19500
N 	N 	0.70252 0.94396 0.10996 -0.17200
N 	N 	0.29748 0.05604 0.89004 -0.17200
N 	N 	0.29727 0.44785 0.39461 -0.17100
N 	N 	0.70273 0.55215 0.60539 -0.17100
C 	C 	0.67162 0.88497 0.15729 0.18100
C 	C 	0.32838 0.11503 0.84271 0.18100
C 	C 	0.32599 0.49878 0.34225 0.17700
C 	C 	0.67402 0.50121 0.65775 0.17700
C 	C 	0.78002 0.08223 0.18205 -0.02200
C 	C 	0.21998 0.91777 0.81795 -0.02200
C 	C 	0.22426 0.28681 0.31589 -0.02000
C 	C 	0.77574 0.71319 0.68411 -0.02000
C 	C 	0.83128 0.06967 0.20486 0.00900
C 	C 	0.16872 0.93033 0.79514 0.00900
C 	C 	0.17323 0.27863 0.29144 0.00700
C 	C 	0.82677 0.72137 0.70856 0.00700
C 	C 	0.83048 0.76652 0.14421 0.02900
C 	C 	0.16952 0.23348 0.85579 0.02900
C 	C 	0.16405 0.55198 0.36871 0.03000
C 	C 	0.83595 0.44801 0.63129 0.03000
C 	C 	0.77997 0.77782 0.12038 -0.08300
C 	C 	0.22002 0.22218 0.87962 -0.08300
C 	C 	0.21443 0.55988 0.39445 -0.08300
C 	C 	0.78557 0.44012 0.60555 -0.08300
C 	C 	0.75450 0.93441 0.13841 0.10400
C 	C 	0.24550 0.06559 0.86159 0.10400
C 	C 	0.24518 0.43092 0.36766 0.10000
C 	C 	0.75482 0.56908 0.63234 0.10000
C 	C 	0.60195 0.96143 0.05359 0.04700
C 	C 	0.39805 0.03857 0.94641 0.04700
C 	C 	0.39764 0.48753 0.44804 0.04500
C 	C 	0.60236 0.51247 0.55196 0.04500
C 	C 	0.63433 0.01154 0.00451 -0.06300
C 	C 	0.36567 0.98846 0.99549 -0.06300
C 	C 	0.36727 0.44983 0.50191 -0.06100
C 	C 	0.63273 0.55016 0.49809 -0.06100
C 	C 	0.61585 0.05184 0.92492 -0.02200
C 	C 	0.38415 0.94816 0.07508 -0.02200
C 	C 	0.38700 0.45320 0.58319 -0.02500
C 	C 	0.61300 0.54680 0.41681 -0.02500
C 	C 	0.62082 0.89325 0.13008 -0.07400
C 	C 	0.37918 0.10675 0.86992 -0.07400
C 	C 	0.37666 0.51694 0.36777 -0.07400
C 	C 	0.62334 0.48306 0.63223 -0.07400
C 	C 	0.85675 0.91271 0.18608 -0.08800
C 	C 	0.14325 0.08729 0.81392 -0.08800
C 	C 	0.14288 0.41113 0.31710 -0.08700
C 	C 	0.85712 0.58887 0.68290 -0.08700
H 	H 	0.84910 0.64434 0.12865 0.03800
H 	H 	0.15090 0.35566 0.87135 0.03800
H 	H 	0.14154 0.65475 0.39026 0.03800
H 	H 	0.85846 0.34525 0.60974 0.03800
H 	H 	0.76044 0.66455 0.08713 0.06500
H 	H 	0.23956 0.33545 0.91287 0.06500
H 	H 	0.22981 0.66810 0.43537 0.06300
H 	H 	0.77019 0.33190 0.56463 0.06300
H 	H 	0.64078 0.07776 0.88542 0.05200
H 	H 	0.35922 0.92224 0.11457 0.05200
H 	H 	0.36315 0.43996 0.62534 0.05300
H 	H 	0.63685 0.56004 0.37466 0.05300
C 	C 	0.48131 0.06492 0.92219 0.01800
C 	C 	0.51869 0.93508 0.07781 0.01800
C 	C 	0.52065 0.47690 0.58148 0.01800
C 	C 	0.47935 0.52309 0.41852 0.01800
C 	C 	0.46775 0.97106 0.05413 -0.01200
C 	C 	0.53225 0.02894 0.94587 -0.01200
C 	C 	0.53095 0.51118 0.44297 -0.01200
C 	C 	0.46905 0.48881 0.55703 -0.01200
C 	C 	0.44923 0.02241 0.97413 -0.02000
C 	C 	0.55077 0.97759 0.02586 -0.02000
C 	C 	0.55106 0.50230 0.52537 -0.02000
C 	C 	0.44894 0.49769 0.47463 -0.02000
C 	C 	0.46150 0.15812 0.85104 -0.06400
C 	C 	0.53850 0.84188 0.14896 -0.06400
C 	C 	0.54310 0.42314 0.65888 -0.06400
C 	C 	0.45690 0.57685 0.34112 -0.06400
C 	C 	0.41139 0.17255 0.82396 0.00200
C 	C 	0.58861 0.82744 0.17603 0.00200
C 	C 	0.59343 0.42978 0.68436 -0.00000
C 	C 	0.40657 0.57022 0.31564 -0.00000
O 	O 	0.31006 0.18097 0.76962 -0.20200
O 	O 	0.68994 0.81903 0.23038 -0.20200
O 	O 	0.69434 0.47012 0.73445 -0.20300
O 	O 	0.30566 0.52988 0.26555 -0.20300
C 	C 	0.56595 0.03456 0.89306 0.00800
C 	C 	0.43405 0.96544 0.10694 0.00800
C 	C 	0.43606 0.49946 0.61081 0.00600
C 	C 	0.56394 0.50053 0.38919 0.00600
H 	H 	0.14812 0.81927 0.76232 0.04700
H 	H 	0.85188 0.18072 0.23768 0.04700
H 	H 	0.84281 0.83054 0.74859 0.04600
H 	H 	0.15720 0.16946 0.25141 0.04600
H 	H 	0.39796 0.23616 0.76694 0.03800
H 	H 	0.60204 0.76384 0.23306 0.03800
H 	H 	0.60874 0.39455 0.74535 0.03800
H 	H 	0.39126 0.60545 0.25465 0.03800
H 	H 	0.48453 0.22355 0.81589 0.04000
H 	H 	0.51547 0.77645 0.18411 0.04000
H 	H 	0.52202 0.37294 0.70046 0.03900
H 	H 	0.47798 0.62706 0.29954 0.03900
C 	C 	0.24854 0.74978 0.79862 -0.03500
C 	C 	0.21964 0.60796 0.74213 -0.15900
H 	H 	0.19066 0.54513 0.76891 0.07100
H 	H 	0.20335 0.67411 0.68481 0.07300
H 	H 	0.24439 0.49549 0.73031 0.08000
H 	H 	0.27881 0.79782 0.77070 0.05000
H 	H 	0.26486 0.67888 0.85485 0.04800
C 	C 	0.75146 0.25022 0.20138 -0.03500
C 	C 	0.78036 0.39204 0.25787 -0.15900
H 	H 	0.79665 0.32589 0.31519 0.07300
H 	H 	0.80934 0.45487 0.23109 0.07100
H 	H 	0.75561 0.50451 0.26969 0.08000
H 	H 	0.73514 0.32111 0.14515 0.04800
H 	H 	0.72118 0.20218 0.22930 0.05000
C 	C 	0.74520 0.86171 0.71302 -0.03600
C 	C 	0.75200 0.04718 0.67515 -0.15600
H 	H 	0.79038 0.09352 0.69207 0.07300
H 	H 	0.74157 0.03575 0.60958 0.07200
H 	H 	0.72838 0.15212 0.69586 0.07800
H 	H 	0.70585 0.82972 0.69905 0.05000
H 	H 	0.75576 0.87405 0.77858 0.05000
C 	C 	0.25480 0.13829 0.28698 -0.03600
C 	C 	0.24800 0.95281 0.32484 -0.15600
H 	H 	0.25844 0.96423 0.39042 0.07200
H 	H 	0.20961 0.90649 0.30793 0.07300
H 	H 	0.27161 0.84787 0.30412 0.07800
H 	H 	0.24424 0.12596 0.22141 0.05000
H 	H 	0.29415 0.17027 0.30095 0.05000
C 	C 	0.55194 0.99452 0.80443 -0.06000
C 	C 	0.58132 0.83568 0.77779 -0.14500
H 	H 	0.62034 0.87165 0.78420 0.06500
H 	H 	0.57771 0.70882 0.81246 0.06300
H 	H 	0.56717 0.80673 0.71401 0.06000
H 	H 	0.51360 0.95001 0.78697 0.03900
H 	H 	0.55764 0.12041 0.77109 0.03900
C 	C 	0.44806 0.00547 0.19557 -0.06000
C 	C 	0.41868 0.16432 0.22221 -0.14500
H 	H 	0.42229 0.29118 0.18754 0.06300
H 	H 	0.37966 0.12834 0.21580 0.06500
H 	H 	0.43283 0.19326 0.28599 0.06000
H 	H 	0.44236 0.87959 0.22891 0.03900
H 	H 	0.48640 0.04998 0.21303 0.03900
C 	C 	0.44927 0.58799 0.69285 -0.05800
C 	C 	0.41509 0.74692 0.70473 -0.14600
H 	H 	0.41383 0.85250 0.65756 0.06500
H 	H 	0.37777 0.69648 0.70486 0.06500
H 	H 	0.42875 0.81310 0.76312 0.06100
H 	H 	0.44864 0.48216 0.73897 0.03700
H 	H 	0.48586 0.65129 0.70270 0.03900
C 	C 	0.55073 0.41201 0.30715 -0.05800
C 	C 	0.58491 0.25308 0.29527 -0.14600
H 	H 	0.62223 0.30353 0.29513 0.06500
H 	H 	0.58617 0.14751 0.34244 0.06500
H 	H 	0.57125 0.18690 0.23688 0.06100
H 	H 	0.51414 0.34871 0.29730 0.03900
H 	H 	0.55136 0.51784 0.26103 0.03700
