data_crystal

_cell_length_a 21.60459
_cell_length_b 7.18355
_cell_length_c 14.89023
_cell_angle_alpha 90.00000
_cell_angle_beta  106.48433
_cell_angle_gamma 90.00000

_symmetry_space_group_name_	'P 1'
_symmetry_space_group_name_H-M	'P 1'

loop_
_symmetry_equiv_pos_as_xyz
  x,y,z

loop_
_atom_site_label
_atom_site_type_symbol
_atom_site_fract_x
_atom_site_fract_y
_atom_site_fract_z
_atom_site_charge
O 	O 	0.33586 0.63819 0.00211 -0.47500
O 	O 	0.66414 0.36181 0.99789 -0.47600
O 	O 	0.16414 0.13819 0.99789 -0.47500
O 	O 	0.83586 0.86181 0.00211 -0.47900
O 	O 	0.21753 0.30592 0.86196 -0.46700
O 	O 	0.78247 0.69408 0.13804 -0.46800
O 	O 	0.28247 0.80592 0.13804 -0.46600
O 	O 	0.71753 0.19408 0.86196 -0.46700
C 	C 	0.20562 0.47673 0.82586 0.32000
C 	C 	0.79414 0.52331 0.17419 0.32000
C 	C 	0.29437 0.97673 0.17414 0.31400
C 	C 	0.70586 0.02331 0.82581 0.31900
O 	O 	0.33869 0.30832 0.99324 -0.48200
O 	O 	0.66131 0.69168 0.00676 -0.48300
O 	O 	0.16131 0.80832 0.00676 -0.48100
O 	O 	0.83869 0.19168 0.99324 -0.48100
O 	O 	0.28617 0.14043 0.13010 -0.45300
O 	O 	0.71383 0.85957 0.86990 -0.45900
O 	O 	0.21383 0.64043 0.86990 -0.45800
O 	O 	0.78617 0.35957 0.13010 -0.45700
C 	C 	0.36496 0.47723 0.99779 0.33800
C 	C 	0.63504 0.52277 0.00221 0.34000
C 	C 	0.13504 0.97723 0.00221 0.33500
C 	C 	0.86496 0.02277 0.99779 0.33800
O 	O 	0.23263 0.47241 0.04475 -0.61700
O 	O 	0.76737 0.52759 0.95525 -0.61800
O 	O 	0.26737 0.97241 0.95525 -0.61600
O 	O 	0.73263 0.02759 0.04475 -0.61100
V 	V 	0.25322 0.19662 0.99170 1.79500
V 	V 	0.74678 0.80338 0.00830 1.79400
V 	V 	0.24678 0.69662 0.00830 1.79500
V 	V 	0.75322 0.30338 0.99170 1.79500
C 	C 	0.03002 0.82638 0.00419 -0.00700
C 	C 	0.96998 0.17361 0.99580 -0.01000
C 	C 	0.46997 0.32638 0.99581 -0.00800
C 	C 	0.53002 0.67361 0.00420 -0.00900
H 	H 	0.05195 0.69009 0.00727 0.04500
H 	H 	0.94805 0.30991 0.99273 0.04500
H 	H 	0.44805 0.19009 0.99273 0.04400
H 	H 	0.55195 0.80991 0.00727 0.04300
C 	C 	0.96502 0.83776 0.00257 -0.01200
C 	C 	0.03498 0.16223 0.99743 -0.00500
C 	C 	0.53498 0.33776 0.99743 -0.00900
C 	C 	0.46502 0.66223 0.00257 -0.00700
H 	H 	0.93917 0.70947 0.00475 0.04900
H 	H 	0.06083 0.29052 0.99526 0.04700
H 	H 	0.56083 0.20947 0.99526 0.04700
H 	H 	0.43917 0.79053 0.00474 0.04600
C 	C 	0.93400 0.01156 0.99833 -0.07000
C 	C 	0.06600 0.98843 0.00166 -0.07700
C 	C 	0.56600 0.51156 0.00167 -0.07000
C 	C 	0.43400 0.48843 0.99834 -0.07100
C 	C 	0.67829 0.01689 0.72417 -0.05900
C 	C 	0.32201 0.98462 0.27571 -0.06300
C 	C 	0.82171 0.51689 0.27583 -0.05900
C 	C 	0.17799 0.48462 0.72428 -0.05900
C 	C 	0.69195 0.03483 0.56764 0.05000
C 	C 	0.30835 0.97044 0.43227 0.04800
C 	C 	0.80805 0.53484 0.43236 0.04900
C 	C 	0.19165 0.47044 0.56773 0.04900
C 	C 	0.71811 0.03139 0.66570 -0.02800
C 	C 	0.28226 0.96949 0.33423 -0.02900
C 	C 	0.78189 0.53140 0.33430 -0.02900
C 	C 	0.21773 0.46948 0.66577 -0.02900
C 	C 	0.61169 0.00554 0.68682 -0.01200
C 	C 	0.38853 0.00074 0.31302 -0.00900
C 	C 	0.88831 0.50554 0.31318 -0.01400
C 	C 	0.11148 0.50075 0.68698 -0.01400
C 	C 	0.58231 0.01707 0.58930 0.00200
C 	C 	0.41759 0.00487 0.41078 0.00400
C 	C 	0.91769 0.51707 0.41070 0.00200
C 	C 	0.08241 0.50488 0.58922 0.00200
C 	C 	0.62333 0.03332 0.52957 -0.01100
C 	C 	0.37657 0.99027 0.47055 -0.01400
C 	C 	0.87667 0.53332 0.47043 -0.01200
C 	C 	0.12343 0.49027 0.52945 -0.01200
C 	C 	0.51345 0.01370 0.54972 0.00400
C 	C 	0.48622 0.02029 0.45061 0.00400
C 	C 	0.98655 0.51370 0.45028 0.00400
C 	C 	0.01378 0.52029 0.54939 0.00400
C 	C 	0.52847 0.04512 0.39458 -0.04000
C 	C 	0.47084 0.00759 0.60612 -0.03900
C 	C 	0.97153 0.54512 0.60542 -0.04100
C 	C 	0.02916 0.50759 0.39388 -0.04100
C 	C 	0.59486 0.05267 0.43303 -0.03100
C 	C 	0.40452 0.99801 0.56761 -0.03400
C 	C 	0.90514 0.55268 0.56697 -0.03200
C 	C 	0.09548 0.49801 0.43239 -0.03200
H 	H 	0.62335 0.07687 0.38510 0.03800
H 	H 	0.37557 0.99755 0.61607 0.03700
H 	H 	0.87665 0.57688 0.61489 0.03700
H 	H 	0.12443 0.49754 0.38393 0.03700
H 	H 	0.41602 0.00553 0.26305 0.04000
H 	H 	0.58448 0.99028 0.73674 0.03900
H 	H 	0.08398 0.50554 0.73695 0.04000
H 	H 	0.91552 0.49026 0.26326 0.04000
H 	H 	0.23097 0.95406 0.30184 0.04500
H 	H 	0.76962 0.03786 0.69812 0.04600
H 	H 	0.26903 0.45405 0.69815 0.04600
H 	H 	0.73038 0.53787 0.30188 0.04500
H 	H 	0.51198 0.06327 0.31985 0.04200
H 	H 	0.48679 0.01282 0.68136 0.04000
H 	H 	0.98802 0.56327 0.68014 0.04100
H 	H 	0.01321 0.51281 0.31864 0.04100
N 	N 	0.73322 0.04044 0.50692 -0.13800
H 	H 	0.71786 0.96096 0.44721 0.07800
C 	C 	0.80277 0.03528 0.54583 -0.08500
H 	H 	0.82599 0.04669 0.48836 0.05600
H 	H 	0.81784 0.90166 0.58314 0.05000
H 	H 	0.81974 0.15437 0.59394 0.04900
N 	N 	0.26745 0.94949 0.49285 -0.14100
H 	H 	0.28498 0.86147 0.54882 0.08200
C 	C 	0.19810 0.93470 0.45385 -0.09300
H 	H 	0.17493 0.93043 0.51155 0.05600
H 	H 	0.18567 0.80473 0.41232 0.05400
H 	H 	0.17868 0.05717 0.40941 0.05300
N 	N 	0.76678 0.54044 0.49308 -0.14100
H 	H 	0.78214 0.46097 0.55279 0.08200
C 	C 	0.69723 0.53528 0.45417 -0.08900
H 	H 	0.67401 0.54668 0.51164 0.05500
H 	H 	0.68216 0.40166 0.41686 0.05300
H 	H 	0.68026 0.65436 0.40605 0.04900
N 	N 	0.23255 0.44949 0.50715 -0.14100
H 	H 	0.21502 0.36147 0.45118 0.08200
C 	C 	0.30190 0.43470 0.54615 -0.08900
H 	H 	0.32507 0.43043 0.48845 0.05600
H 	H 	0.31433 0.30473 0.58768 0.05400
H 	H 	0.32132 0.55717 0.59059 0.05000
