data_crystal

_cell_length_a 10.84546
_cell_length_b 10.77655
_cell_length_c 9.61207
_cell_angle_alpha 89.75377
_cell_angle_beta  89.04272
_cell_angle_gamma 92.51998

_symmetry_space_group_name_	'P 1'
_symmetry_space_group_name_H-M	'P 1'

loop_
_symmetry_equiv_pos_as_xyz
  x,y,z

loop_
_atom_site_label
_atom_site_type_symbol
_atom_site_fract_x
_atom_site_fract_y
_atom_site_fract_z
_atom_site_charge
O 	O 	0.49999 0.31966 0.61874 -0.37300
O 	O 	0.50001 0.68034 0.38126 -0.37300
O 	O 	0.49999 0.31963 0.38117 -0.35900
O 	O 	0.50001 0.68037 0.61883 -0.35900
C 	C 	0.50320 0.26277 0.50007 0.32900
C 	C 	0.49680 0.73723 0.49993 0.32900
O 	O 	0.31965 0.50002 0.61878 -0.37100
O 	O 	0.68035 0.49998 0.38122 -0.37100
O 	O 	0.31964 0.50000 0.38121 -0.35800
O 	O 	0.68036 0.50000 0.61879 -0.35800
C 	C 	0.26265 0.50125 0.50063 0.33500
C 	C 	0.73735 0.49875 0.49937 0.33500
Cu	Cu	0.50000 0.50002 0.64066 0.92300
Cu	Cu	0.50000 0.49998 0.35934 0.92300
H 	H 	0.33668 0.83703 0.01822 0.07200
H 	H 	0.66324 0.16256 0.98135 0.07200
C 	C 	0.27185 0.82904 0.23129 0.00100
C 	C 	0.72830 0.17068 0.76838 0.00100
H 	H 	0.31938 0.91545 0.25955 0.05600
H 	H 	0.68093 0.08420 0.74003 0.05600
C 	C 	0.20160 0.76123 0.33123 -0.05200
C 	C 	0.79857 0.23859 0.66854 -0.05200
H 	H 	0.19550 0.79562 0.43664 0.05500
H 	H 	0.80484 0.20423 0.56314 0.05500
C 	C 	0.13984 0.64913 0.29490 0.04700
C 	C 	0.86013 0.35077 0.70498 0.04700
C 	C 	0.14796 0.60649 0.15724 -0.04500
C 	C 	0.85179 0.39337 0.84264 -0.04500
H 	H 	0.10041 0.52040 0.12755 0.06700
H 	H 	0.89919 0.47952 0.87241 0.06700
C 	C 	0.21926 0.67393 0.05800 -0.00300
C 	C 	0.78047 0.32582 0.94177 -0.00300
H 	H 	0.22664 0.63994 0.95248 0.05100
H 	H 	0.77293 0.35978 0.04729 0.05100
C 	C 	0.28138 0.78500 0.09508 -0.03100
C 	C 	0.71855 0.21468 0.90458 -0.03100
C 	C 	0.93849 0.57276 0.40195 0.16500
C 	C 	0.06151 0.42728 0.59807 0.16500
C 	C 	0.87154 0.49718 0.49887 -0.10700
C 	C 	0.12846 0.50283 0.50114 -0.10700
C 	C 	0.93190 0.42551 0.59865 -0.02200
C 	C 	0.06810 0.57449 0.40134 -0.02200
C 	C 	0.57766 0.06482 0.40219 0.18200
C 	C 	0.42235 0.93518 0.59781 0.18200
C 	C 	0.56864 0.93627 0.40156 -0.04900
C 	C 	0.43137 0.06373 0.59844 -0.04900
H 	H 	0.62451 0.88692 0.32742 0.08600
H 	H 	0.37550 0.11309 0.67258 0.08600
C 	C 	0.49373 0.87109 0.49938 -0.11300
C 	C 	0.50628 0.12891 0.50062 -0.11300
C 	C 	0.43915 0.40709 0.07606 0.07100
C 	C 	0.56083 0.59292 0.92394 0.07100
C 	C 	0.43829 0.40734 0.92877 0.16100
C 	C 	0.56171 0.59266 0.07124 0.16100
N 	N 	0.50003 0.50003 0.85207 -0.20000
N 	N 	0.49997 0.49997 0.14793 -0.20000
O 	O 	0.37235 0.31157 0.86681 -0.26700
H 	H 	0.34120 0.34284 0.77892 0.17200
O 	O 	0.62765 0.68843 0.13320 -0.26700
H 	H 	0.65881 0.65716 0.22107 0.17200
O 	O 	0.87362 0.64665 0.31321 -0.27700
H 	H 	0.92889 0.71003 0.26693 0.15800
O 	O 	0.12639 0.35340 0.68684 -0.27700
H 	H 	0.07110 0.29017 0.73333 0.15800
O 	O 	0.65904 0.12273 0.30799 -0.27900
H 	H 	0.68394 0.20623 0.34270 0.16300
O 	O 	0.34097 0.87726 0.69200 -0.27900
H 	H 	0.31606 0.79377 0.65729 0.16300
N 	N 	0.37232 0.30873 0.14846 -0.01200
O 	O 	0.40968 0.19604 0.13747 -0.08300
O 	O 	0.25952 0.32489 0.19008 -0.09300
N 	N 	0.62760 0.69133 0.85155 -0.01200
O 	O 	0.59027 0.80402 0.86271 -0.08300
O 	O 	0.74033 0.67518 0.80969 -0.09300
