data_crystal

_cell_length_a 10.88636
_cell_length_b 10.91088
_cell_length_c 18.82619
_cell_angle_alpha 90.36688
_cell_angle_beta  89.80436
_cell_angle_gamma 60.27855

_symmetry_space_group_name_	'P 1'
_symmetry_space_group_name_H-M	'P 1'

loop_
_symmetry_equiv_pos_as_xyz
  x,y,z

loop_
_atom_site_label
_atom_site_type_symbol
_atom_site_fract_x
_atom_site_fract_y
_atom_site_fract_z
_atom_site_charge
C 	C 	0.23605 0.64673 0.60959 0.42900
C 	C 	0.55170 0.22529 0.79610 0.00700
C 	C 	0.53609 0.23834 0.72374 0.01900
C 	C 	0.65336 0.62184 0.60127 0.39000
C 	C 	0.65376 0.19650 0.67917 -0.10400
C 	C 	0.18896 0.55497 0.72092 0.02300
C 	C 	0.17860 0.56105 0.79476 0.01200
C 	C 	0.16732 0.67848 0.83159 -0.09400
C 	C 	0.17128 0.78686 0.79397 -0.00300
C 	C 	0.17982 0.78162 0.72102 0.01000
C 	C 	0.19118 0.66475 0.68373 -0.10700
C 	C 	0.67309 0.54888 0.80032 0.07000
C 	C 	0.72986 0.52604 0.27164 -0.01200
C 	C 	0.72821 0.53866 0.19887 -0.00000
C 	C 	0.65058 0.67140 0.16777 -0.14300
C 	C 	0.62577 0.23272 0.60437 0.42600
C 	C 	0.56185 0.78932 0.21032 -0.00800
C 	C 	0.55923 0.77532 0.28392 -0.01600
C 	C 	0.64763 0.64414 0.31504 -0.13400
C 	C 	0.54247 0.15989 0.28742 0.02500
C 	C 	0.54225 0.15535 0.21464 0.01300
C 	C 	0.65100 0.15820 0.17630 -0.10200
C 	C 	0.69975 0.67429 0.81207 -0.12900
C 	C 	0.75676 0.17208 0.21158 0.00300
C 	C 	0.75594 0.17848 0.28488 0.01100
C 	C 	0.64665 0.17606 0.32294 -0.11200
C 	C 	0.08836 0.80328 0.30506 0.01800
C 	C 	0.21910 0.64953 0.40241 0.43600
C 	C 	0.06945 0.81549 0.23297 0.00800
C 	C 	0.10739 0.69517 0.19059 -0.09800
C 	C 	0.15230 0.56418 0.22166 0.01700
C 	C 	0.17351 0.55135 0.29434 0.02500
C 	C 	0.14928 0.67000 0.33522 -0.11200
C 	C 	0.66920 0.64714 0.67664 -0.07100
C 	C 	0.70182 0.10343 0.89658 0.40000
C 	C 	0.72464 0.68878 0.88778 0.43300
C 	C 	0.11607 0.70774 0.90472 0.40400
C 	C 	0.67434 0.10803 0.10393 0.40900
C 	C 	0.69390 0.68993 0.09711 0.42600
C 	C 	0.64026 0.61992 0.39064 0.40800
C 	C 	0.08267 0.71533 0.11546 0.41500
C 	C 	0.61794 0.22776 0.39513 0.43400
C 	C 	0.57458 0.81333 0.78202 -0.02100
C 	C 	0.55341 0.79510 0.70283 -0.05600
C 	C 	0.81596 0.63222 0.68992 -0.05500
C 	C 	0.83524 0.64478 0.76986 -0.02700
C 	C 	0.65453 0.53342 0.72006 -0.08600
C 	C 	0.78863 0.14372 0.70878 0.01200
C 	C 	0.80534 0.12502 0.78226 0.00200
C 	C 	0.68665 0.16227 0.82587 -0.09400
Cr	Cr	0.39293 0.39790 0.50223 1.54400
Cr	Cr	0.39824 0.70860 0.50126 1.53000
Cr	Cr	0.70880 0.39347 0.49646 1.53100
Cr	Cr	0.93762 0.93854 0.00764 1.39400
Cr	Cr	0.62515 0.93745 0.99452 1.48700
Cr	Cr	0.93799 0.62508 0.00119 1.46300
H 	H 	0.59778 0.90145 0.78817 -0.01000
H 	H 	0.17364 0.47710 0.82267 0.07200
H 	H 	0.16221 0.87939 0.82052 0.02600
H 	H 	0.47485 0.84482 0.81188 0.01600
H 	H 	0.18219 0.86796 0.69419 0.02300
H 	H 	0.79572 0.42256 0.29378 0.02200
H 	H 	0.79643 0.44573 0.16734 0.01500
H 	H 	0.50130 0.89309 0.18736 -0.01600
H 	H 	0.49140 0.86674 0.31641 -0.00900
H 	H 	0.45648 0.15786 0.31554 0.07100
H 	H 	0.46034 0.14282 0.18879 0.07700
H 	H 	0.73689 0.42591 0.70269 0.05000
H 	H 	0.84285 0.17245 0.18272 0.01900
H 	H 	0.83758 0.19014 0.31153 0.02000
H 	H 	0.06620 0.89607 0.33615 0.02800
H 	H 	0.44643 0.80753 0.69552 0.03300
H 	H 	0.02755 0.91949 0.21038 0.03600
H 	H 	0.17625 0.47191 0.18972 0.06000
H 	H 	0.21951 0.44711 0.31726 0.05700
H 	H 	0.55821 0.87894 0.67159 -0.00200
H 	H 	0.86017 0.73092 0.77953 -0.02500
H 	H 	0.82553 0.71575 0.66094 -0.01500
H 	H 	0.92732 0.54451 0.78792 -0.00700
H 	H 	0.76799 0.45049 0.81849 0.01300
H 	H 	0.55032 0.54127 0.70918 0.05000
H 	H 	0.54780 0.47259 0.83910 0.08300
H 	H 	0.45761 0.64458 0.81954 0.08200
H 	H 	0.90181 0.52831 0.67013 0.00500
H 	H 	0.88015 0.11509 0.67527 0.02600
H 	H 	0.91063 0.07513 0.80434 0.03500
H 	H 	0.45821 0.25623 0.82854 0.05700
H 	H 	0.43040 0.28299 0.70280 0.05400
H 	H 	0.19679 0.46423 0.69309 0.06500
N 	N 	0.55113 0.56651 0.84201 -0.18700
O 	O 	0.50743 0.25557 0.58142 -0.45900
O 	O 	0.83720 0.59329 0.91525 -0.52200
O 	O 	0.06533 0.63537 0.93159 -0.42300
O 	O 	0.28019 0.52739 0.57891 -0.51200
O 	O 	0.06830 0.82879 0.09186 -0.46000
O 	O 	0.79873 0.05748 0.07937 -0.48300
O 	O 	0.58468 0.08048 0.07679 -0.41000
O 	O 	0.62679 0.80964 0.06705 -0.58500
O 	O 	0.81601 0.59646 0.07650 -0.54300
O 	O 	0.04568 0.63831 0.08107 -0.43800
O 	O 	0.83359 0.83369 0.00112 -0.88000
O 	O 	0.52446 0.69592 0.42406 -0.54600
O 	O 	0.26031 0.73974 0.58458 -0.49700
O 	O 	0.53225 0.69515 0.57383 -0.54400
O 	O 	0.74493 0.50343 0.57638 -0.50800
O 	O 	0.69925 0.27639 0.57195 -0.53400
O 	O 	0.49902 0.25640 0.41985 -0.46700
O 	O 	0.27240 0.52816 0.42914 -0.51600
O 	O 	0.25191 0.74057 0.42302 -0.49600
O 	O 	0.73653 0.50426 0.41481 -0.51500
O 	O 	0.69146 0.27716 0.42218 -0.53400
O 	O 	0.49999 0.49999 0.49998 -0.75000
O 	O 	0.08949 0.82561 0.93061 -0.44200
O 	O 	0.81837 0.05454 0.92988 -0.45800
O 	O 	0.60587 0.07731 0.91553 -0.38700
O 	O 	0.64644 0.80670 0.91757 -0.56500
