data_crystal

_cell_length_a 19.37410
_cell_length_b 11.26282
_cell_length_c 18.71162
_cell_angle_alpha 90.00000
_cell_angle_beta  90.22495
_cell_angle_gamma 90.00000

_symmetry_space_group_name_	'P 1'
_symmetry_space_group_name_H-M	'P 1'

loop_
_symmetry_equiv_pos_as_xyz
  x,y,z

loop_
_atom_site_label
_atom_site_type_symbol
_atom_site_fract_x
_atom_site_fract_y
_atom_site_fract_z
_atom_site_charge
C 	C 	0.27241 0.04376 0.85410 0.39900
C 	C 	0.72759 0.04376 0.14590 0.39900
C 	C 	0.77241 0.54377 0.85410 0.35500
C 	C 	0.22759 0.54377 0.14590 0.35500
C 	C 	0.51976 0.72178 0.96456 -0.00800
C 	C 	0.48024 0.72178 0.03544 -0.00800
C 	C 	0.01976 0.22178 0.96456 -0.00900
C 	C 	0.98024 0.22178 0.03544 -0.00900
C 	C 	0.31210 0.52883 0.04399 -0.05200
C 	C 	0.68790 0.52884 0.95601 -0.05200
C 	C 	0.81210 0.02883 0.04399 -0.01400
C 	C 	0.18790 0.02883 0.95601 -0.01400
C 	C 	0.32141 0.55292 0.96357 -0.05000
C 	C 	0.67859 0.55292 0.03643 -0.05000
C 	C 	0.82141 0.05292 0.96357 -0.02000
C 	C 	0.17859 0.05292 0.03643 -0.02000
C 	C 	0.17950 0.52378 0.02589 -0.05000
C 	C 	0.82049 0.52378 0.97411 -0.05000
C 	C 	0.67950 0.02378 0.02589 -0.01300
C 	C 	0.32049 0.02378 0.97411 -0.01300
C 	C 	0.24061 0.70826 0.05662 -0.04900
C 	C 	0.75939 0.70826 0.94338 -0.04900
C 	C 	0.74061 0.20826 0.05662 -0.04500
C 	C 	0.25939 0.20826 0.94338 -0.04500
C 	C 	0.24100 0.57496 0.07029 -0.06300
C 	C 	0.75900 0.57496 0.92971 -0.06300
C 	C 	0.74100 0.07496 0.07029 -0.08400
C 	C 	0.25900 0.07496 0.92971 -0.08400
C 	C 	0.25506 0.61010 0.93230 -0.06300
C 	C 	0.74494 0.61010 0.06770 -0.06300
C 	C 	0.75506 0.11010 0.93230 -0.07300
C 	C 	0.24494 0.11010 0.06770 -0.07300
C 	C 	0.19474 0.52484 0.94513 -0.05200
C 	C 	0.80526 0.52484 0.05487 -0.05200
C 	C 	0.69474 0.02484 0.94513 -0.02100
C 	C 	0.30526 0.02484 0.05487 -0.02100
C 	C 	0.23865 0.72609 0.97467 -0.05400
C 	C 	0.76135 0.72609 0.02533 -0.05400
C 	C 	0.73865 0.22609 0.97467 -0.05500
C 	C 	0.26135 0.22609 0.02533 -0.05500
C 	C 	0.50365 0.70093 0.46034 -0.04800
C 	C 	0.49635 0.70093 0.53966 -0.04800
C 	C 	0.00365 0.20093 0.46034 -0.04900
C 	C 	0.99635 0.20093 0.53966 -0.04900
C 	C 	0.44394 0.81701 0.86244 0.29100
C 	C 	0.55606 0.81701 0.13756 0.29100
C 	C 	0.94394 0.31701 0.86244 0.29000
C 	C 	0.05606 0.31701 0.13756 0.29000
C 	C 	0.56464 0.90536 0.47372 -0.05200
C 	C 	0.43536 0.90536 0.52628 -0.05200
C 	C 	0.06464 0.40536 0.47372 -0.05400
C 	C 	0.93536 0.40536 0.52628 -0.05400
C 	C 	0.44084 0.88756 0.44434 -0.05000
C 	C 	0.55916 0.88756 0.55566 -0.05000
C 	C 	0.94084 0.38756 0.44434 -0.05100
C 	C 	0.05916 0.38756 0.55566 -0.05100
C 	C 	0.51062 0.82929 0.43092 -0.06500
C 	C 	0.48938 0.82929 0.56908 -0.06500
C 	C 	0.01062 0.32929 0.43092 -0.06300
C 	C 	0.98938 0.32929 0.56908 -0.06300
C 	C 	0.17963 0.64722 0.45924 -0.04700
C 	C 	0.82037 0.64722 0.54076 -0.04700
C 	C 	0.67963 0.14722 0.45924 -0.04700
C 	C 	0.32037 0.14722 0.54076 -0.04700
C 	C 	0.18435 0.65966 0.53847 -0.04700
C 	C 	0.81565 0.65966 0.46153 -0.04700
C 	C 	0.68435 0.15966 0.53847 -0.05200
C 	C 	0.31565 0.15966 0.46153 -0.05200
C 	C 	0.25260 0.45447 0.47301 -0.05200
C 	C 	0.74740 0.45447 0.52699 -0.05200
C 	C 	0.75260 0.95447 0.47301 -0.07300
C 	C 	0.24740 0.95447 0.52699 -0.07300
C 	C 	0.30479 0.64796 0.44252 -0.04900
C 	C 	0.69521 0.64796 0.55748 -0.04900
C 	C 	0.80479 0.14796 0.44252 -0.04800
C 	C 	0.19521 0.14796 0.55748 -0.04800
C 	C 	0.24061 0.57251 0.42999 -0.06700
C 	C 	0.75939 0.57251 0.57001 -0.06700
C 	C 	0.74061 0.07251 0.42999 -0.05100
C 	C 	0.25939 0.07251 0.57001 -0.05100
C 	C 	0.25283 0.60604 0.56756 -0.06600
C 	C 	0.74718 0.60604 0.43244 -0.06600
C 	C 	0.75282 0.10604 0.56756 -0.03800
C 	C 	0.24718 0.10604 0.43244 -0.03800
C 	C 	0.24732 0.47271 0.55475 -0.05000
C 	C 	0.75268 0.47271 0.44525 -0.05000
C 	C 	0.74732 0.97271 0.55475 -0.07800
C 	C 	0.25268 0.97271 0.44525 -0.07800
C 	C 	0.26216 0.64186 0.85510 0.35600
C 	C 	0.73784 0.64186 0.14490 0.35600
C 	C 	0.76216 0.14186 0.85510 0.36400
C 	C 	0.23784 0.14186 0.14490 0.36400
C 	C 	0.31753 0.64849 0.52425 -0.05300
C 	C 	0.68247 0.64849 0.47575 -0.05300
C 	C 	0.81752 0.14849 0.52425 -0.05800
C 	C 	0.18247 0.14849 0.47575 -0.05800
C 	C 	0.27306 0.04338 0.64572 0.39300
C 	C 	0.72694 0.04338 0.35428 0.39300
C 	C 	0.77306 0.54338 0.64572 0.36000
C 	C 	0.22694 0.54338 0.35428 0.36000
C 	C 	0.46872 0.82314 0.64532 0.35500
C 	C 	0.53128 0.82314 0.35468 0.35500
C 	C 	0.96872 0.32314 0.64532 0.35300
C 	C 	0.03128 0.32314 0.35468 0.35300
C 	C 	0.26095 0.64014 0.64351 0.36000
C 	C 	0.73905 0.64014 0.35649 0.36000
C 	C 	0.76095 0.14014 0.64351 0.35700
C 	C 	0.23905 0.14014 0.35649 0.35700
C 	C 	0.47974 0.91594 0.03567 -0.01300
C 	C 	0.52026 0.91594 0.96433 -0.01300
C 	C 	0.97974 0.41594 0.03567 -0.01100
C 	C 	0.02026 0.41594 0.96433 -0.01100
C 	C 	0.43139 0.81778 0.00660 -0.02400
C 	C 	0.56861 0.81777 0.99340 -0.02400
C 	C 	0.93139 0.31778 0.00660 -0.02200
C 	C 	0.06861 0.31777 0.99340 -0.02200
C 	C 	0.47186 0.81950 0.93607 -0.06600
C 	C 	0.52814 0.81950 0.06393 -0.06600
C 	C 	0.97186 0.31950 0.93607 -0.06300
C 	C 	0.02814 0.31950 0.06393 -0.06300
Cr	Cr	0.22962 0.83604 0.74911 1.51600
Cr	Cr	0.77038 0.83604 0.25089 1.51600
Cr	Cr	0.72962 0.33604 0.74911 1.51700
Cr	Cr	0.27038 0.33604 0.25089 1.51700
Cr	Cr	0.38763 0.99068 0.75073 1.50600
Cr	Cr	0.61237 0.99068 0.24927 1.50600
Cr	Cr	0.88763 0.49068 0.75073 1.51500
Cr	Cr	0.11237 0.49068 0.24927 1.51500
Cr	Cr	0.38602 0.67659 0.74921 1.51600
Cr	Cr	0.61398 0.67659 0.25079 1.51600
Cr	Cr	0.88602 0.17659 0.74921 1.51700
Cr	Cr	0.11398 0.17659 0.25079 1.51700
H 	H 	0.37651 0.80454 0.01762 0.02300
H 	H 	0.62349 0.80454 0.98238 0.02300
H 	H 	0.87651 0.30454 0.01762 0.02500
H 	H 	0.12349 0.30454 0.98238 0.02500
H 	H 	0.28721 0.74714 0.08148 0.03100
H 	H 	0.71279 0.74714 0.91852 0.03100
H 	H 	0.78721 0.24714 0.08148 0.03100
H 	H 	0.21279 0.24714 0.91852 0.03100
H 	H 	0.27354 0.79598 0.95837 0.03400
H 	H 	0.72646 0.79598 0.04163 0.03400
H 	H 	0.77354 0.29598 0.95837 0.03600
H 	H 	0.22646 0.29598 0.04163 0.03600
H 	H 	0.18513 0.75224 0.96046 0.03900
H 	H 	0.81487 0.75224 0.03954 0.03900
H 	H 	0.68513 0.25224 0.96046 0.04200
H 	H 	0.31487 0.25224 0.03954 0.04200
H 	H 	0.63263 0.07928 0.03465 0.04200
H 	H 	0.36737 0.07927 0.96535 0.04200
H 	H 	0.13263 0.57928 0.03465 0.04100
H 	H 	0.86737 0.57927 0.96535 0.04100
H 	H 	0.14818 0.55427 0.91516 0.03800
H 	H 	0.85182 0.55427 0.08484 0.03800
H 	H 	0.64818 0.05427 0.91516 0.04200
H 	H 	0.35182 0.05427 0.08484 0.04200
H 	H 	0.54665 0.64365 0.44610 0.04000
H 	H 	0.45335 0.64365 0.55390 0.04000
H 	H 	0.04665 0.14365 0.44610 0.04300
H 	H 	0.95335 0.14365 0.55390 0.04300
H 	H 	0.45849 0.65624 0.43569 0.03500
H 	H 	0.54151 0.65624 0.56431 0.03500
H 	H 	0.95849 0.15624 0.43569 0.03800
H 	H 	0.04151 0.15624 0.56431 0.03800
H 	H 	0.61672 0.89718 0.45370 0.03100
H 	H 	0.38328 0.89718 0.54630 0.03100
H 	H 	0.11671 0.39718 0.45370 0.03700
H 	H 	0.88328 0.39718 0.54630 0.03700
H 	H 	0.60124 0.83091 0.57614 0.03000
H 	H 	0.39876 0.83091 0.42386 0.03000
H 	H 	0.10124 0.33091 0.57614 0.03200
H 	H 	0.89876 0.33091 0.42386 0.03200
H 	H 	0.46487 0.99698 0.06545 0.01700
H 	H 	0.53513 0.99698 0.93455 0.01700
H 	H 	0.96487 0.49698 0.06545 0.02700
H 	H 	0.03513 0.49698 0.93455 0.02700
H 	H 	0.43779 0.97385 0.41589 0.02300
H 	H 	0.56221 0.97386 0.58411 0.02300
H 	H 	0.93779 0.47385 0.41589 0.03100
H 	H 	0.06221 0.47386 0.58411 0.03100
H 	H 	0.44977 0.99870 0.53636 0.02700
H 	H 	0.55023 0.99870 0.46364 0.02700
H 	H 	0.94977 0.49871 0.53636 0.03700
H 	H 	0.05023 0.49871 0.46364 0.03700
H 	H 	0.12925 0.61105 0.44549 0.03800
H 	H 	0.87075 0.61105 0.55451 0.03800
H 	H 	0.62925 0.11105 0.44549 0.05000
H 	H 	0.37075 0.11105 0.55451 0.05000
H 	H 	0.17925 0.73642 0.43407 0.03200
H 	H 	0.82075 0.73642 0.56593 0.03200
H 	H 	0.67925 0.23642 0.43407 0.03500
H 	H 	0.32075 0.23642 0.56593 0.03500
H 	H 	0.17775 0.75292 0.55205 0.03700
H 	H 	0.82225 0.75292 0.44795 0.03700
H 	H 	0.67775 0.25292 0.55205 0.04100
H 	H 	0.32225 0.25292 0.44795 0.04100
H 	H 	0.13950 0.61556 0.56378 0.03300
H 	H 	0.86050 0.61556 0.43622 0.03300
H 	H 	0.63950 0.11556 0.56378 0.04700
H 	H 	0.36050 0.11556 0.43622 0.04700
H 	H 	0.72225 0.88038 0.45364 0.03800
H 	H 	0.27775 0.88038 0.54636 0.03800
H 	H 	0.22224 0.38038 0.45364 0.03600
H 	H 	0.77775 0.38038 0.54636 0.03600
H 	H 	0.69804 0.93841 0.57565 0.03100
H 	H 	0.30196 0.93841 0.42435 0.03100
H 	H 	0.19804 0.43840 0.57565 0.03200
H 	H 	0.80196 0.43840 0.42435 0.03200
H 	H 	0.34945 0.60916 0.41383 0.03100
H 	H 	0.65055 0.60916 0.58617 0.03100
H 	H 	0.84945 0.10916 0.41383 0.03700
H 	H 	0.15055 0.10916 0.58617 0.03700
H 	H 	0.29682 0.73873 0.42178 0.03000
H 	H 	0.70318 0.73873 0.57822 0.03000
H 	H 	0.79682 0.23873 0.42178 0.03100
H 	H 	0.20318 0.23873 0.57822 0.03100
H 	H 	0.53479 0.64019 0.93540 0.03000
H 	H 	0.46521 0.64019 0.06460 0.03000
H 	H 	0.03479 0.14019 0.93540 0.03500
H 	H 	0.96521 0.14019 0.06460 0.03500
H 	H 	0.33916 0.73107 0.54349 0.03600
H 	H 	0.66084 0.73107 0.45651 0.03600
H 	H 	0.83916 0.23107 0.54349 0.03800
H 	H 	0.16084 0.23107 0.45651 0.03800
H 	H 	0.35768 0.58091 0.53422 0.03800
H 	H 	0.64232 0.58091 0.46578 0.03800
H 	H 	0.85768 0.08091 0.53422 0.04700
H 	H 	0.14232 0.08091 0.46578 0.04700
H 	H 	0.30670 0.42907 0.46250 0.03800
H 	H 	0.69330 0.42907 0.53750 0.03800
H 	H 	0.80670 0.92907 0.46250 0.03300
H 	H 	0.19330 0.92907 0.53750 0.03300
H 	H 	0.28969 0.42550 0.58298 0.03100
H 	H 	0.71032 0.42550 0.41702 0.03100
H 	H 	0.78968 0.92550 0.58298 0.02800
H 	H 	0.21032 0.92550 0.41702 0.02800
H 	H 	0.31840 0.43438 0.05508 0.03900
H 	H 	0.68160 0.43438 0.94492 0.03900
H 	H 	0.81840 0.93438 0.05508 0.01200
H 	H 	0.18160 0.93438 0.94492 0.01200
H 	H 	0.35394 0.57327 0.07460 0.03400
H 	H 	0.64606 0.57327 0.92540 0.03400
H 	H 	0.85394 0.07327 0.07460 0.03200
H 	H 	0.14606 0.07327 0.92540 0.03200
H 	H 	0.36621 0.61269 0.95544 0.04000
H 	H 	0.63379 0.61269 0.04456 0.04000
H 	H 	0.86621 0.11269 0.95544 0.03600
H 	H 	0.13379 0.11269 0.04456 0.03600
H 	H 	0.33304 0.46831 0.93543 0.03400
H 	H 	0.66696 0.46831 0.06457 0.03400
H 	H 	0.83304 0.96831 0.93543 0.00600
H 	H 	0.16696 0.96831 0.06457 0.00600
H 	H 	0.66412 0.93836 0.04720 0.00800
H 	H 	0.33588 0.93836 0.95280 0.00800
H 	H 	0.16412 0.43836 0.04720 0.03400
H 	H 	0.83588 0.43836 0.95280 0.03400
H 	H 	0.70820 0.93581 0.92571 0.00900
H 	H 	0.29180 0.93581 0.07429 0.00900
H 	H 	0.20820 0.43581 0.92571 0.03400
H 	H 	0.79180 0.43581 0.07429 0.03400
O 	O 	0.21413 0.70857 0.82989 -0.47600
O 	O 	0.78587 0.70857 0.17011 -0.47600
O 	O 	0.71413 0.20857 0.82989 -0.47300
O 	O 	0.28587 0.20857 0.17011 -0.47300
O 	O 	0.44636 0.91999 0.67523 -0.51700
O 	O 	0.55364 0.91999 0.32477 -0.51700
O 	O 	0.94636 0.41999 0.67523 -0.51000
O 	O 	0.05364 0.41999 0.32477 -0.51000
O 	O 	0.45717 0.71730 0.66838 -0.47300
O 	O 	0.54283 0.71730 0.33162 -0.47300
O 	O 	0.95717 0.21730 0.66838 -0.47000
O 	O 	0.04283 0.21730 0.33162 -0.47000
O 	O 	0.32087 0.62489 0.67313 -0.51200
O 	O 	0.67913 0.62489 0.32687 -0.51200
O 	O 	0.82087 0.12489 0.67313 -0.50500
O 	O 	0.17913 0.12489 0.32687 -0.50500
O 	O 	0.33443 0.83443 0.74968 -0.73200
O 	O 	0.66557 0.83443 0.25032 -0.73200
O 	O 	0.83443 0.33443 0.74968 -0.72900
O 	O 	0.16557 0.33443 0.25032 -0.72900
O 	O 	0.23605 0.95915 0.82527 -0.54400
O 	O 	0.76395 0.95915 0.17473 -0.54400
O 	O 	0.73605 0.45915 0.82527 -0.51100
O 	O 	0.26395 0.45915 0.17473 -0.51100
O 	O 	0.33210 0.07665 0.83231 -0.47100
O 	O 	0.66790 0.07665 0.16769 -0.47100
O 	O 	0.83210 0.57665 0.83231 -0.47800
O 	O 	0.16790 0.57665 0.16769 -0.47800
O 	O 	0.44650 0.91862 0.82624 -0.48800
O 	O 	0.55350 0.91862 0.17376 -0.48800
O 	O 	0.94650 0.41862 0.82624 -0.48000
O 	O 	0.05350 0.41862 0.17376 -0.48000
O 	O 	0.45731 0.71583 0.83128 -0.44300
O 	O 	0.54269 0.71583 0.16872 -0.44300
O 	O 	0.95731 0.21583 0.83128 -0.43900
O 	O 	0.04269 0.21583 0.16872 -0.43900
O 	O 	0.32100 0.62352 0.82413 -0.51600
O 	O 	0.67900 0.62352 0.17587 -0.51600
O 	O 	0.82100 0.12352 0.82413 -0.51100
O 	O 	0.17900 0.12352 0.17587 -0.51100
O 	O 	0.21399 0.71004 0.66700 -0.47700
O 	O 	0.78601 0.71004 0.33300 -0.47700
O 	O 	0.71399 0.21004 0.66700 -0.47000
O 	O 	0.28601 0.21004 0.33300 -0.47000
O 	O 	0.23592 0.96052 0.67426 -0.54400
O 	O 	0.76408 0.96052 0.32574 -0.54400
O 	O 	0.73592 0.46052 0.67426 -0.51400
O 	O 	0.26408 0.46052 0.32574 -0.51400
O 	O 	0.33196 0.07812 0.66941 -0.46900
O 	O 	0.66804 0.07812 0.33059 -0.46900
O 	O 	0.83196 0.57812 0.66941 -0.47900
O 	O 	0.16804 0.57812 0.33059 -0.47900
H 	H 	0.19503 0.75197 0.08129 0.03400
H 	H 	0.80497 0.75197 0.91871 0.03400
H 	H 	0.69503 0.25197 0.08129 0.03600
H 	H 	0.30497 0.25197 0.91871 0.03600
