data_crystal

_cell_length_a 10.95405
_cell_length_b 10.73190
_cell_length_c 9.85204
_cell_angle_alpha 90.40606
_cell_angle_beta  102.22615
_cell_angle_gamma 91.01481

_symmetry_space_group_name_	'P 1'
_symmetry_space_group_name_H-M	'P 1'

loop_
_symmetry_equiv_pos_as_xyz
  x,y,z

loop_
_atom_site_label
_atom_site_type_symbol
_atom_site_fract_x
_atom_site_fract_y
_atom_site_fract_z
_atom_site_charge
C 	C 	0.50791 0.26035 0.50196 0.37200
C 	C 	0.50332 0.74032 0.49960 0.37300
C 	C 	0.26162 0.51968 0.44472 0.32800
C 	C 	0.74018 0.51544 0.55775 0.33200
C 	C 	0.60338 0.46514 0.09599 -0.00600
C 	C 	0.39635 0.53101 0.90470 0.01300
C 	C 	0.60266 0.46345 0.95209 0.01600
C 	C 	0.39587 0.53053 0.04763 -0.00400
C 	C 	0.13463 0.57706 0.41732 -0.01500
C 	C 	0.87382 0.55915 0.59812 -0.02000
C 	C 	0.07498 0.59724 0.52374 0.09400
C 	C 	0.93462 0.60121 0.50038 0.09300
C 	C 	0.51206 0.06630 0.37807 -0.04100
C 	C 	0.53672 0.93526 0.62509 -0.00600
C 	C 	0.52050 0.93878 0.37293 0.06800
C 	C 	0.55080 0.06285 0.63202 0.03200
C 	C 	0.51540 0.87322 0.49709 -0.12900
C 	C 	0.52299 0.12835 0.50550 -0.10500
H 	H 	0.68595 0.43659 0.16921 0.03100
H 	H 	0.31316 0.55336 0.83269 0.03800
H 	H 	0.68330 0.43026 0.91709 0.02100
H 	H 	0.31172 0.55295 0.08146 0.02500
H 	H 	0.50515 0.11746 0.28227 0.04700
H 	H 	0.54875 0.88408 0.72131 0.03700
N 	N 	0.49997 0.49997 0.85720 -0.22900
N 	N 	0.50003 0.50003 0.14280 -0.22400
O 	O 	0.49999 0.31675 0.61462 -0.45200
O 	O 	0.50001 0.68325 0.38538 -0.46300
O 	O 	0.49999 0.31678 0.38529 -0.44900
O 	O 	0.50001 0.68322 0.61471 -0.45900
O 	O 	0.31781 0.50000 0.57185 -0.42600
O 	O 	0.68219 0.50000 0.42815 -0.42900
O 	O 	0.31781 0.50003 0.34252 -0.43300
O 	O 	0.68219 0.49997 0.65748 -0.44400
Zn	Zn	0.50000 0.49998 0.65312 1.22400
Zn	Zn	0.50000 0.50002 0.34688 1.22400
O 	O 	0.86530 0.65771 0.38391 -0.19100
C 	C 	0.88775 0.78857 0.39659 0.04800
H 	H 	0.84826 0.83013 0.29443 0.02000
H 	H 	0.98821 0.81168 0.42566 0.02200
C 	C 	0.82784 0.85149 0.50515 -0.09500
H 	H 	0.73170 0.81802 0.49100 0.06100
H 	H 	0.87348 0.82513 0.61052 0.05100
C 	C 	0.83665 0.99340 0.49764 -0.09200
H 	H 	0.93588 0.02471 0.51515 0.03400
H 	H 	0.79458 0.03589 0.57940 0.04200
H 	H 	0.78713 0.02689 0.39492 0.03900
O 	O 	0.14424 0.60078 0.65867 -0.18200
C 	C 	0.14889 0.72424 0.71232 0.03900
H 	H 	0.16440 0.71946 0.82728 0.02800
H 	H 	0.06046 0.77243 0.67705 0.02600
C 	C 	0.25413 0.80358 0.67524 -0.07000
H 	H 	0.34466 0.77415 0.73913 0.05200
H 	H 	0.25547 0.79160 0.56367 0.05400
C 	C 	0.23602 0.94136 0.70400 -0.14300
H 	H 	0.14333 0.97192 0.64636 0.05600
H 	H 	0.30776 0.99887 0.66854 0.06400
H 	H 	0.24342 0.95782 0.81690 0.05300
O 	O 	0.93035 0.57956 0.73871 -0.16000
C 	C 	0.85132 0.64875 0.80886 0.03200
H 	H 	0.81163 0.58387 0.87562 0.04100
H 	H 	0.77353 0.69563 0.73709 0.03000
C 	C 	0.91981 0.75204 0.90353 -0.07500
H 	H 	0.99248 0.71028 0.98445 0.05700
H 	H 	0.96433 0.81996 0.84452 0.04200
C 	C 	0.82708 0.82295 0.97047 -0.11700
H 	H 	0.79566 0.76403 0.04927 0.04900
H 	H 	0.74396 0.84948 0.89129 0.04900
H 	H 	0.87074 0.91061 0.01989 0.04000
O 	O 	0.08300 0.62379 0.28636 -0.16100
C 	C 	0.16586 0.71227 0.24249 0.02700
H 	H 	0.17617 0.68349 0.13767 0.02900
H 	H 	0.26113 0.71920 0.30900 0.03300
C 	C 	0.11371 0.84423 0.23554 -0.07000
H 	H 	0.01235 0.83791 0.19661 0.04900
H 	H 	0.13509 0.88749 0.34075 0.04400
C 	C 	0.16709 0.93183 0.14088 -0.13000
H 	H 	0.17531 0.88457 0.04271 0.04400
H 	H 	0.25884 0.96923 0.19719 0.05600
H 	H 	0.10455 0.01237 0.11440 0.04300
C 	C 	0.56268 0.88490 0.24583 -0.07600
C 	C 	0.45682 0.85577 0.12218 -0.13200
H 	H 	0.49500 0.81061 0.03863 0.04900
H 	H 	0.38768 0.79100 0.15196 0.05900
H 	H 	0.41197 0.94313 0.08007 0.04600
H 	H 	0.62642 0.95315 0.21023 0.03900
H 	H 	0.62077 0.80159 0.27005 0.05900
C 	C 	0.60701 0.12082 0.77329 -0.06300
C 	C 	0.51025 0.13460 0.86306 -0.13900
H 	H 	0.55461 0.17954 0.96371 0.05600
H 	H 	0.43156 0.19258 0.81078 0.06700
H 	H 	0.47354 0.04148 0.88448 0.04700
H 	H 	0.68242 0.06041 0.82875 0.03200
H 	H 	0.65547 0.21106 0.76489 0.05400
