data_crystal

_cell_length_a 6.97205
_cell_length_b 13.55414
_cell_length_c 20.26542
_cell_angle_alpha 103.06842
_cell_angle_beta  90.44814
_cell_angle_gamma 90.15500

_symmetry_space_group_name_	'P 1'
_symmetry_space_group_name_H-M	'P 1'

loop_
_symmetry_equiv_pos_as_xyz
  x,y,z

loop_
_atom_site_label
_atom_site_type_symbol
_atom_site_fract_x
_atom_site_fract_y
_atom_site_fract_z
_atom_site_charge
O 	O 	0.50677 0.59970 0.44955 -0.47600
O 	O 	0.17998 0.59574 0.58796 -0.47900
O 	O 	0.00458 0.40030 0.55045 -0.48300
C 	C 	0.34837 0.61647 0.61546 0.36400
O 	O 	0.17738 0.61170 0.45238 -0.48900
O 	O 	0.00197 0.41637 0.41390 -0.49300
C 	C 	0.34537 0.63829 0.43566 0.38700
O 	O 	0.50939 0.58363 0.58610 -0.44700
O 	O 	0.33753 0.43589 0.48753 -0.62500
V 	V 	0.06466 0.51189 0.50231 1.80700
O 	O 	0.67195 0.40426 0.41204 -0.48900
C 	C 	0.84016 0.38287 0.38480 0.41400
O 	O 	0.67454 0.38830 0.54762 -0.48000
C 	C 	0.84394 0.36163 0.56420 0.48600
V 	V 	0.56403 0.48811 0.49769 1.80900
O 	O 	0.84103 0.56411 0.51247 -0.62200
C 	C 	0.94133 0.11515 0.61258 -0.20700
H 	H 	0.98179 0.03864 0.58785 0.12600
C 	C 	0.85726 0.28422 0.60385 -0.22800
C 	C 	0.82395 0.31602 0.93124 -0.05700
C 	C 	0.81722 0.39342 0.89671 0.25800
C 	C 	0.83823 0.37273 0.82648 0.23100
C 	C 	0.86018 0.27124 0.78837 -0.05300
C 	C 	0.87917 0.19334 0.82515 0.07200
C 	C 	0.86981 0.24386 0.71579 0.00200
C 	C 	0.91844 0.14271 0.68312 0.09000
C 	C 	0.94335 0.06936 0.72079 -0.03300
C 	C 	0.92044 0.09366 0.79039 -0.04700
C 	C 	0.82968 0.31198 0.67390 0.07500
C 	C 	0.91541 0.18614 0.57334 0.43000
C 	C 	0.85843 0.21668 0.89645 -0.07800
H 	H 	0.77487 0.38682 0.69339 0.10000
H 	H 	0.80717 0.33400 0.98578 0.11400
H 	H 	0.93911 0.03353 0.81700 0.06100
C 	C 	0.71195 0.25292 0.20289 -0.05800
C 	C 	0.86768 0.18838 0.18272 0.00400
C 	C 	0.02107 0.19406 0.22898 -0.05100
H 	H 	0.14186 0.14434 0.21605 0.09000
C 	C 	0.01314 0.25796 0.29424 0.03100
H 	H 	0.12990 0.25659 0.32945 0.05100
C 	C 	0.85018 0.31755 0.31550 -0.11900
C 	C 	0.70346 0.31623 0.26766 0.12800
C 	C 	0.49516 0.29588 0.27388 -0.22000
C 	C 	0.50518 0.22612 0.20400 0.31000
H 	H 	0.40685 0.36445 0.27516 0.09300
H 	H 	0.46605 0.25573 0.31493 0.12700
H 	H 	0.41793 0.25074 0.16454 0.00300
C 	C 	0.50676 0.75122 0.70562 -0.07000
C 	C 	0.35221 0.68618 0.68335 -0.00800
C 	C 	0.19443 0.69174 0.72705 -0.03600
H 	H 	0.07465 0.64094 0.71234 0.10300
C 	C 	0.19588 0.75710 0.79187 0.04700
H 	H 	0.07691 0.75521 0.82539 0.05400
C 	C 	0.35635 0.81832 0.81518 -0.13700
C 	C 	0.50895 0.81580 0.77005 0.12600
C 	C 	0.71522 0.79504 0.78074 -0.22100
C 	C 	0.71177 0.72412 0.71121 0.31300
H 	H 	0.73724 0.75585 0.82284 0.14600
H 	H 	0.80643 0.86306 0.78319 0.08600
C 	C 	0.28984 0.88810 0.38793 -0.08500
H 	H 	0.28785 0.83866 0.48122 0.03000
H 	H 	0.25128 0.01071 0.30384 0.08800
H 	H 	0.25796 0.96572 0.41300 0.07600
C 	C 	0.34913 0.71579 0.39596 -0.11500
C 	C 	0.40142 0.68331 0.06981 -0.13500
C 	C 	0.41673 0.60744 0.10558 0.39200
C 	C 	0.39842 0.63032 0.17583 -0.19200
C 	C 	0.36200 0.73064 0.21230 0.08900
C 	C 	0.33976 0.80734 0.17487 -0.00200
C 	C 	0.34794 0.75758 0.28452 -0.05400
C 	C 	0.30781 0.85978 0.31723 0.07700
C 	C 	0.28318 0.93287 0.27926 -0.07300
C 	C 	0.29862 0.90714 0.20929 0.00200
C 	C 	0.37071 0.68669 0.32566 0.04000
C 	C 	0.30815 0.81625 0.42693 0.05200
C 	C 	0.36264 0.78295 0.10362 -0.01900
H 	H 	0.39945 0.60777 0.30478 0.03100
H 	H 	0.42151 0.66450 0.01543 0.13500
H 	H 	0.41404 0.56768 0.19996 0.11400
O 	O 	0.20345 0.91632 0.91391 -0.49400
O 	O 	0.53552 0.88830 0.04762 -0.46000
O 	O 	0.71086 0.08365 0.08610 -0.44200
C 	C 	0.36743 0.86158 0.06432 0.36400
O 	O 	0.53286 0.90425 0.91204 -0.49300
O 	O 	0.70819 0.09971 0.94955 -0.46300
C 	C 	0.36421 0.88312 0.88469 0.39800
O 	O 	0.20612 0.90026 0.05046 -0.46600
O 	O 	0.37528 0.06408 0.01247 -0.62000
V 	V 	0.64818 0.98811 0.99769 1.80300
O 	O 	0.03822 0.11174 0.95237 -0.48300
C 	C 	0.86899 0.13831 0.93574 0.39000
O 	O 	0.04088 0.09579 0.08794 -0.48500
C 	C 	0.87297 0.11729 0.11521 0.37600
V 	V 	0.14880 0.01195 0.00230 1.80900
O 	O 	0.87182 0.93592 0.98753 -0.63100
F 	F 	0.94520 0.15903 0.50553 -0.45000
F 	F 	0.48213 0.12542 0.20589 -0.44400
F 	F 	0.73137 0.62356 0.71439 -0.41200
H 	H 	0.97861 0.99202 0.69611 0.03600
H 	H 	0.80471 0.74807 0.67329 -0.00900
F 	F 	0.45342 0.51097 0.07202 -0.43200
H 	H 	0.27665 0.96633 0.18220 0.07100
F 	F 	0.85084 0.45429 0.79855 -0.37700
F 	F 	0.79387 0.49032 0.93195 -0.36900
