data_crystal

_cell_length_a 12.61726
_cell_length_b 12.61756
_cell_length_c 26.80165
_cell_angle_alpha 89.99787
_cell_angle_beta  90.00340
_cell_angle_gamma 120.00188

_symmetry_space_group_name_	'P 1'
_symmetry_space_group_name_H-M	'P 1'

loop_
_symmetry_equiv_pos_as_xyz
  x,y,z

loop_
_atom_site_label
_atom_site_type_symbol
_atom_site_fract_x
_atom_site_fract_y
_atom_site_fract_z
_atom_site_charge
C 	C 	0.55615 0.45796 0.82157 0.42000
C 	C 	0.90180 0.44384 0.67843 0.41900
C 	C 	0.54204 0.09819 0.82157 0.42000
C 	C 	0.55615 0.45796 0.67843 0.42000
C 	C 	0.90181 0.44385 0.82157 0.42000
C 	C 	0.54204 0.09822 0.67842 0.42000
C 	C 	0.45796 0.55614 0.32157 0.42000
C 	C 	0.44385 0.90182 0.17843 0.42000
C 	C 	0.09818 0.54204 0.32157 0.42000
C 	C 	0.45796 0.55615 0.17843 0.42000
C 	C 	0.44388 0.90184 0.32156 0.42000
C 	C 	0.09818 0.54204 0.17843 0.41900
C 	C 	0.99758 0.50145 0.97376 0.01000
C 	C 	0.50401 0.00278 0.52618 0.01000
C 	C 	0.49854 0.49614 0.97375 0.01000
C 	C 	0.99755 0.50143 0.52624 0.01000
C 	C 	0.50386 0.00240 0.97375 0.01000
C 	C 	0.49856 0.49611 0.52624 0.01000
C 	C 	0.50168 0.99800 0.47369 0.01000
C 	C 	0.00236 0.50384 0.02625 0.01000
C 	C 	0.49617 0.49849 0.47374 0.01000
C 	C 	0.50147 0.99762 0.02625 0.01000
C 	C 	0.00233 0.50383 0.47374 0.01000
C 	C 	0.49615 0.49853 0.02625 0.01000
C 	C 	0.99204 0.69145 0.97409 -0.03700
C 	C 	0.69932 0.00780 0.52591 -0.03700
C 	C 	0.30858 0.30054 0.97409 -0.03700
C 	C 	0.99204 0.69145 0.52590 -0.03700
C 	C 	0.69946 0.00804 0.97410 -0.03700
C 	C 	0.30858 0.30055 0.52590 -0.03700
C 	C 	0.69129 0.99168 0.47410 -0.03700
C 	C 	0.00816 0.69951 0.02589 -0.03700
C 	C 	0.30052 0.30860 0.47409 -0.03700
C 	C 	0.69140 0.99192 0.02591 -0.03700
C 	C 	0.00816 0.69951 0.47409 -0.03700
C 	C 	0.30052 0.30860 0.02590 -0.03700
C 	C 	0.96610 0.58063 0.89617 0.01600
C 	C 	0.61448 0.03390 0.60381 0.01600
C 	C 	0.41939 0.38544 0.89617 0.01600
C 	C 	0.96607 0.58062 0.60382 0.01500
C 	C 	0.61456 0.03395 0.89618 0.01600
C 	C 	0.41939 0.38543 0.60382 0.01600
C 	C 	0.58065 0.96601 0.39615 0.01600
C 	C 	0.03398 0.61459 0.10383 0.01600
C 	C 	0.38543 0.41937 0.39616 0.01600
C 	C 	0.58061 0.96605 0.10383 0.01600
C 	C 	0.03397 0.61458 0.39617 0.01600
C 	C 	0.38543 0.41939 0.10383 0.01600
C 	C 	0.03346 0.51760 0.12998 -0.15000
C 	C 	0.48428 0.96669 0.36997 -0.15100
C 	C 	0.48240 0.51588 0.12998 -0.15000
C 	C 	0.03346 0.51760 0.37001 -0.15000
C 	C 	0.48412 0.96652 0.12998 -0.15000
C 	C 	0.48241 0.51586 0.37001 -0.15100
C 	C 	0.51759 0.03365 0.62993 -0.15000
C 	C 	0.96652 0.48410 0.87002 -0.15000
C 	C 	0.51589 0.48239 0.62997 -0.15000
C 	C 	0.51760 0.03349 0.87002 -0.15000
C 	C 	0.96650 0.48409 0.62997 -0.15000
C 	C 	0.51589 0.48240 0.87002 -0.15000
C 	C 	0.98758 0.59317 0.94769 -0.00700
C 	C 	0.60559 0.01249 0.55228 -0.00700
C 	C 	0.40684 0.39438 0.94769 -0.00700
C 	C 	0.98756 0.59316 0.55230 -0.00700
C 	C 	0.60562 0.01246 0.94770 -0.00700
C 	C 	0.40685 0.39437 0.55230 -0.00700
C 	C 	0.59322 0.98758 0.44767 -0.00700
C 	C 	0.01248 0.60564 0.05230 -0.00700
C 	C 	0.39438 0.40682 0.44769 -0.00700
C 	C 	0.59316 0.98754 0.05231 -0.00700
C 	C 	0.01248 0.60563 0.44769 -0.00700
C 	C 	0.39437 0.40684 0.05231 -0.00700
C 	C 	0.00474 0.40960 0.89498 0.09800
C 	C 	0.40496 0.99574 0.60493 0.09800
C 	C 	0.59037 0.59515 0.89497 0.09800
C 	C 	0.00473 0.40959 0.60502 0.09800
C 	C 	0.40485 0.99522 0.89497 0.09800
C 	C 	0.59038 0.59513 0.60502 0.09800
C 	C 	0.41006 0.00534 0.39486 0.09800
C 	C 	0.99512 0.40484 0.10505 0.09800
C 	C 	0.59517 0.59030 0.39495 0.09800
C 	C 	0.40966 0.00481 0.10504 0.09800
C 	C 	0.99512 0.40483 0.39495 0.09800
C 	C 	0.59515 0.59034 0.10504 0.09800
C 	C 	0.00339 0.40757 0.94744 -0.03300
C 	C 	0.40442 0.99723 0.55247 -0.03300
C 	C 	0.59239 0.59584 0.94743 -0.03300
C 	C 	0.00335 0.40755 0.55256 -0.03300
C 	C 	0.40416 0.99656 0.94743 -0.03300
C 	C 	0.59242 0.59580 0.55256 -0.03300
C 	C 	0.40804 0.00417 0.44732 -0.03300
C 	C 	0.99644 0.40412 0.05258 -0.03300
C 	C 	0.59588 0.59231 0.44742 -0.03300
C 	C 	0.40763 0.00349 0.05257 -0.03300
C 	C 	0.99642 0.40410 0.44742 -0.03300
C 	C 	0.59585 0.59237 0.05258 -0.03300
C 	C 	0.99597 0.30802 0.02586 -0.02700
C 	C 	0.31256 0.00501 0.47402 -0.02700
C 	C 	0.69193 0.68803 0.02585 -0.02700
C 	C 	0.99594 0.30800 0.47414 -0.02700
C 	C 	0.31198 0.00391 0.02584 -0.02700
C 	C 	0.69197 0.68796 0.47414 -0.02700
C 	C 	0.30861 0.99729 0.52571 -0.02700
C 	C 	0.00372 0.31188 0.97418 -0.02700
C 	C 	0.68811 0.69183 0.52583 -0.02700
C 	C 	0.30811 0.99618 0.97416 -0.02700
C 	C 	0.00367 0.31185 0.52583 -0.02700
C 	C 	0.68807 0.69189 0.97416 -0.02700
Cr	Cr	0.48763 0.24118 0.75000 1.54900
Cr	Cr	0.75355 0.51237 0.75000 1.54900
Cr	Cr	0.75882 0.24645 0.75000 1.54900
Cr	Cr	0.24118 0.48763 0.25000 1.54900
Cr	Cr	0.51237 0.75355 0.25000 1.54900
Cr	Cr	0.24645 0.75882 0.25000 1.54900
O 	O 	0.46087 0.12093 0.80524 -0.49600
O 	O 	0.66006 0.53913 0.69476 -0.49600
O 	O 	0.87907 0.33994 0.80524 -0.49600
O 	O 	0.46087 0.12093 0.69476 -0.49600
O 	O 	0.66006 0.53913 0.80524 -0.49600
O 	O 	0.87907 0.33994 0.69476 -0.49600
O 	O 	0.12093 0.46087 0.30524 -0.49600
O 	O 	0.53913 0.66006 0.19476 -0.49600
O 	O 	0.33994 0.87907 0.30524 -0.49600
O 	O 	0.12093 0.46087 0.19476 -0.49600
O 	O 	0.53913 0.66006 0.30524 -0.49600
O 	O 	0.33994 0.87907 0.19476 -0.49600
O 	O 	0.49891 0.35047 0.80187 -0.53500
O 	O 	0.85156 0.50109 0.69813 -0.53500
O 	O 	0.64953 0.14844 0.80187 -0.53500
O 	O 	0.49891 0.35047 0.69813 -0.53500
O 	O 	0.85156 0.50109 0.80187 -0.53500
O 	O 	0.64953 0.14844 0.69813 -0.53500
O 	O 	0.35047 0.49891 0.30187 -0.53500
O 	O 	0.50109 0.85156 0.19813 -0.53500
O 	O 	0.14844 0.64953 0.30187 -0.53500
O 	O 	0.35047 0.49891 0.19813 -0.53500
O 	O 	0.50109 0.85156 0.30187 -0.53500
O 	O 	0.14844 0.64953 0.19813 -0.53500
O 	O 	0.66667 0.33333 0.75000 -0.74100
O 	O 	0.33333 0.66667 0.25000 -0.74100
H 	H 	0.05689 0.69907 0.12299 0.02600
H 	H 	0.64209 0.94287 0.37702 0.02600
H 	H 	0.30095 0.35779 0.12300 0.02600
H 	H 	0.05688 0.69907 0.37700 0.02600
H 	H 	0.64222 0.94318 0.12300 0.02600
H 	H 	0.30095 0.35779 0.37700 0.02600
H 	H 	0.69883 0.05647 0.62302 0.02600
H 	H 	0.94329 0.64226 0.87699 0.02600
H 	H 	0.35779 0.30096 0.62299 0.02600
H 	H 	0.69903 0.05680 0.87700 0.02600
H 	H 	0.94325 0.64225 0.62300 0.02600
H 	H 	0.35778 0.30097 0.87700 0.02600
H 	H 	0.01540 0.77813 0.04537 0.02900
H 	H 	0.76257 0.98423 0.45465 0.02900
H 	H 	0.22193 0.23721 0.04538 0.02900
H 	H 	0.01542 0.77814 0.45461 0.02900
H 	H 	0.76280 0.98472 0.04539 0.02900
H 	H 	0.22191 0.23722 0.45461 0.02900
H 	H 	0.77777 0.01472 0.54542 0.02900
H 	H 	0.98491 0.76287 0.95460 0.02900
H 	H 	0.23716 0.22198 0.54539 0.02900
H 	H 	0.77804 0.01522 0.95462 0.02900
H 	H 	0.98491 0.76288 0.54539 0.02900
H 	H 	0.23718 0.22196 0.95461 0.02900
C 	C 	0.95154 0.28630 0.13353 -0.19300
H 	H 	0.92072 0.29193 0.17174 0.07000
H 	H 	0.87015 0.21067 0.11489 0.06400
H 	H 	0.02546 0.26297 0.13541 0.06600
C 	C 	0.33529 0.04906 0.36632 -0.19300
H 	H 	0.37165 0.07953 0.32808 0.07000
H 	H 	0.23794 0.97533 0.36452 0.06600
H 	H 	0.34139 0.13070 0.38487 0.06400
C 	C 	0.71370 0.66533 0.13352 -0.19300
H 	H 	0.70810 0.62886 0.17172 0.07000
H 	H 	0.78934 0.65962 0.11486 0.06400
H 	H 	0.73698 0.76255 0.13541 0.06600
C 	C 	0.95153 0.28629 0.36646 -0.19300
H 	H 	0.92071 0.29192 0.32826 0.07100
H 	H 	0.02546 0.26298 0.36458 0.06600
H 	H 	0.87016 0.21066 0.38511 0.06400
C 	C 	0.33468 0.04838 0.13351 -0.19300
H 	H 	0.23746 0.97443 0.13542 0.06600
H 	H 	0.37119 0.07929 0.17170 0.07000
H 	H 	0.34035 0.12970 0.11484 0.06400
C 	C 	0.71371 0.66526 0.36647 -0.19300
H 	H 	0.70808 0.62882 0.32827 0.07100
H 	H 	0.73702 0.76250 0.36459 0.06600
H 	H 	0.78934 0.65953 0.38512 0.06400
C 	C 	0.28636 0.95242 0.63335 -0.19300
H 	H 	0.26360 0.02671 0.63541 0.06600
H 	H 	0.21051 0.87152 0.61455 0.06400
H 	H 	0.29160 0.92096 0.67147 0.07100
C 	C 	0.04826 0.33456 0.86651 -0.19300
H 	H 	0.97428 0.23735 0.86463 0.06600
H 	H 	0.07914 0.37100 0.82831 0.07100
H 	H 	0.12958 0.34024 0.88518 0.06400
C 	C 	0.66538 0.71368 0.63349 -0.19300
H 	H 	0.62890 0.70811 0.67169 0.07000
H 	H 	0.76260 0.73693 0.63540 0.06600
H 	H 	0.65973 0.78932 0.61482 0.06400
C 	C 	0.28630 0.95167 0.86649 -0.19300
H 	H 	0.29188 0.92077 0.82830 0.07100
H 	H 	0.21063 0.87036 0.88516 0.06400
H 	H 	0.26306 0.02565 0.86458 0.06600
C 	C 	0.04828 0.33458 0.63349 -0.19300
H 	H 	0.97431 0.23736 0.63539 0.06600
H 	H 	0.12961 0.34026 0.61482 0.06400
H 	H 	0.07918 0.37105 0.67169 0.07000
C 	C 	0.66536 0.71369 0.86649 -0.19300
H 	H 	0.62889 0.70810 0.82829 0.07000
H 	H 	0.65968 0.78934 0.88515 0.06400
H 	H 	0.76259 0.73696 0.86460 0.06600
H 	H 	0.99484 0.23152 0.04462 0.02800
H 	H 	0.23735 0.00642 0.45524 0.02800
H 	H 	0.76842 0.76342 0.04461 0.02800
H 	H 	0.99480 0.23149 0.45538 0.02800
H 	H 	0.23658 0.00500 0.04460 0.02800
H 	H 	0.76847 0.76333 0.45538 0.02800
H 	H 	0.23226 0.99655 0.54444 0.02800
H 	H 	0.00476 0.23646 0.95542 0.02800
H 	H 	0.76353 0.76831 0.54459 0.02800
H 	H 	0.23163 0.99512 0.95540 0.02800
H 	H 	0.00469 0.23641 0.54459 0.02800
H 	H 	0.76347 0.76837 0.95540 0.02800
