data_crystal

_cell_length_a 10.23123
_cell_length_b 10.56469
_cell_length_c 10.81292
_cell_angle_alpha 90.77213
_cell_angle_beta  96.76315
_cell_angle_gamma 78.94386

_symmetry_space_group_name_	'P 1'
_symmetry_space_group_name_H-M	'P 1'

loop_
_symmetry_equiv_pos_as_xyz
  x,y,z

loop_
_atom_site_label
_atom_site_type_symbol
_atom_site_fract_x
_atom_site_fract_y
_atom_site_fract_z
_atom_site_charge
C 	C 	0.44233 0.50928 0.26658 0.35300
C 	C 	0.55756 0.49393 0.73279 0.35800
C 	C 	0.40785 0.52562 0.13226 -0.03800
C 	C 	0.59252 0.49162 0.86640 -0.04400
C 	C 	0.50993 0.53294 0.06661 -0.00000
C 	C 	0.49508 0.54708 0.93368 0.00100
C 	C 	0.07683 0.47764 0.49777 0.07900
C 	C 	0.93431 0.48937 0.52618 0.08500
C 	C 	0.50901 0.25952 0.51810 0.36400
C 	C 	0.49312 0.74227 0.48968 0.36900
C 	C 	0.75058 0.06230 0.46669 -0.11100
C 	C 	0.26198 0.93825 0.56822 -0.11300
C 	C 	0.82749 0.99339 0.38081 0.18200
C 	C 	0.18638 0.00916 0.65394 0.17700
C 	C 	0.77760 0.89704 0.30937 -0.04300
C 	C 	0.23460 0.10985 0.71947 -0.04400
C 	C 	0.65414 0.86692 0.33249 0.15300
C 	C 	0.35574 0.14143 0.69164 0.14900
C 	C 	0.58528 0.92726 0.43050 -0.01400
C 	C 	0.42437 0.07688 0.59520 -0.01900
C 	C 	0.62308 0.03720 0.48359 0.09200
C 	C 	0.38775 0.96428 0.54572 0.09300
C 	C 	0.47891 0.88189 0.47620 -0.08400
C 	C 	0.52875 0.12184 0.54641 -0.08400
H 	H 	0.79253 0.13475 0.52108 0.11100
H 	H 	0.21694 0.86669 0.51595 0.11200
H 	H 	0.39897 0.59829 0.88931 0.06100
H 	H 	0.61167 0.52552 0.11174 0.06900
H 	H 	0.86126 0.43460 0.35786 0.09200
H 	H 	0.11463 0.63304 0.59554 0.10100
N 	N 	0.15730 0.55139 0.55112 -0.27400
N 	N 	0.84270 0.44861 0.44888 -0.27200
O 	O 	0.56894 0.48966 0.30753 -0.43700
O 	O 	0.43106 0.51034 0.69247 -0.43400
O 	O 	0.34888 0.52264 0.34035 -0.44800
O 	O 	0.65112 0.47736 0.65965 -0.45300
O 	O 	0.61003 0.30028 0.48358 -0.43800
O 	O 	0.38997 0.69972 0.51642 -0.44200
O 	O 	0.38997 0.33327 0.51640 -0.42800
O 	O 	0.61003 0.66673 0.48360 -0.42500
Zn	Zn	0.64694 0.47798 0.47808 1.23600
Zn	Zn	0.35306 0.52202 0.52192 1.23600
C 	C 	0.15891 0.18547 0.81714 -0.12700
H 	H 	0.06148 0.15767 0.82613 0.08600
H 	H 	0.22021 0.17073 0.90942 0.08800
H 	H 	0.13786 0.28975 0.79256 0.07100
C 	C 	0.85286 0.82575 0.20924 -0.12800
H 	H 	0.95216 0.85131 0.20454 0.09000
H 	H 	0.87000 0.72032 0.22762 0.07400
H 	H 	0.79318 0.84744 0.11684 0.08900
Cl	Cl	0.97886 0.04094 0.35766 -0.33900
Cl	Cl	0.03637 0.96142 0.68170 -0.33500
Cl	Cl	0.57207 0.77562 0.22252 -0.33500
Cl	Cl	0.43348 0.24427 0.79301 -0.33400
C 	C 	0.72672 0.41684 0.92403 -0.12900
H 	H 	0.78436 0.36295 0.85305 0.07400
H 	H 	0.78681 0.48392 0.97215 0.06300
H 	H 	0.71177 0.34414 0.99160 0.08000
C 	C 	0.26540 0.53325 0.07226 -0.13400
H 	H 	0.19749 0.51904 0.14151 0.07000
H 	H 	0.22721 0.62937 0.02772 0.07300
H 	H 	0.26197 0.45705 0.00080 0.07300
C 	C 	0.90481 0.53074 0.65519 -0.23000
H 	H 	0.99080 0.55903 0.71333 0.08700
H 	H 	0.82012 0.61414 0.65098 0.09400
H 	H 	0.88527 0.44682 0.70471 0.08700
C 	C 	0.13001 0.36164 0.42197 -0.23500
H 	H 	0.05227 0.32311 0.36192 0.10000
H 	H 	0.19769 0.38448 0.35727 0.08900
H 	H 	0.17749 0.28040 0.48575 0.11000
