data_crystal

_cell_length_a 27.75428
_cell_length_b 8.71532
_cell_length_c 7.43567
_cell_angle_alpha 102.55606
_cell_angle_beta  94.12190
_cell_angle_gamma 92.49574

_symmetry_space_group_name_	'P 1'
_symmetry_space_group_name_H-M	'P 1'

loop_
_symmetry_equiv_pos_as_xyz
  x,y,z

loop_
_atom_site_label
_atom_site_type_symbol
_atom_site_fract_x
_atom_site_fract_y
_atom_site_fract_z
_atom_site_charge
C 	C 	0.49746 0.20044 0.45489 0.33300
C 	C 	0.50262 0.79958 0.54511 0.33800
C 	C 	0.10207 0.48205 0.51227 0.06700
C 	C 	0.89805 0.48290 0.47966 0.06700
C 	C 	0.12484 0.34285 0.44213 -0.06500
C 	C 	0.87506 0.62560 0.49905 -0.06600
C 	C 	0.09670 0.20296 0.37063 0.01400
C 	C 	0.90305 0.76759 0.53284 0.01400
C 	C 	0.13054 0.62142 0.59103 -0.06500
C 	C 	0.86984 0.34082 0.45588 -0.06400
C 	C 	0.35499 0.49612 0.50877 -0.09600
C 	C 	0.64516 0.49746 0.49107 -0.09400
C 	C 	0.97168 0.33702 0.44714 0.01900
C 	C 	0.02842 0.62611 0.55804 0.01800
C 	C 	0.97734 0.62744 0.53297 0.01900
C 	C 	0.02266 0.33787 0.44041 0.01900
C 	C 	0.94921 0.48242 0.48615 -0.02300
C 	C 	0.05087 0.48197 0.50360 -0.02300
C 	C 	0.94222 0.19583 0.41792 -0.05200
C 	C 	0.05794 0.76386 0.63794 -0.05300
C 	C 	0.89232 0.19823 0.42545 0.01400
C 	C 	0.10805 0.76076 0.65630 0.01500
C 	C 	0.40763 0.49925 0.50257 0.33000
C 	C 	0.59244 0.49991 0.49736 0.33000
C 	C 	0.04658 0.19976 0.37188 -0.05300
C 	C 	0.95327 0.76901 0.55229 -0.05400
C 	C 	0.48821 0.03551 0.43879 -0.05900
C 	C 	0.51194 0.96452 0.56119 -0.07700
C 	C 	0.17546 0.34770 0.44342 0.21100
C 	C 	0.82436 0.62269 0.48661 0.21000
C 	C 	0.18109 0.61803 0.60177 0.21100
C 	C 	0.81962 0.34527 0.46549 0.20900
C 	C 	0.27624 0.55657 0.38771 -0.10000
C 	C 	0.71507 0.42059 0.32119 -0.09800
C 	C 	0.32643 0.55778 0.38224 0.05700
C 	C 	0.66502 0.42715 0.32788 0.05800
C 	C 	0.33326 0.43045 0.64083 0.04200
C 	C 	0.67570 0.56289 0.64955 0.04600
C 	C 	0.28296 0.42305 0.64655 -0.06300
C 	C 	0.72596 0.55827 0.64795 -0.06000
C 	C 	0.25408 0.48774 0.51943 0.15400
C 	C 	0.74611 0.48671 0.48192 0.15300
Cu	Cu	0.50538 0.51738 0.68438 0.92600
Cu	Cu	0.49462 0.48262 0.31562 0.92600
H 	H 	0.35569 0.38195 0.73777 0.04300
H 	H 	0.66021 0.61738 0.77599 0.05000
H 	H 	0.46235 0.37812 0.94867 0.09900
H 	H 	0.53765 0.62189 0.05133 0.10000
H 	H 	0.11335 0.09453 0.31471 0.05700
H 	H 	0.88620 0.87883 0.54990 0.05000
H 	H 	0.64131 0.37462 0.20591 0.04600
H 	H 	0.34355 0.60983 0.28159 0.05100
H 	H 	0.87120 0.08747 0.40373 0.05700
H 	H 	0.12916 0.86911 0.71922 0.05800
H 	H 	0.95689 0.08146 0.39517 0.04700
H 	H 	0.04321 0.87516 0.69334 0.04900
H 	H 	0.02736 0.08805 0.31221 0.04900
H 	H 	0.97242 0.88287 0.57753 0.04500
N 	N 	0.20240 0.48401 0.52295 -0.16900
N 	N 	0.79775 0.48439 0.47591 -0.16800
N 	N 	0.48651 0.45643 0.03851 -0.17700
N 	N 	0.51349 0.54357 0.96149 -0.17700
O 	O 	0.50350 0.28612 0.61978 -0.36400
O 	O 	0.49650 0.71388 0.38022 -0.36600
O 	O 	0.49441 0.25678 0.30836 -0.37200
O 	O 	0.50559 0.74322 0.69164 -0.37400
O 	O 	0.43481 0.51470 0.65569 -0.37400
O 	O 	0.56519 0.48530 0.34431 -0.37400
O 	O 	0.42572 0.48535 0.34428 -0.36900
O 	O 	0.57428 0.51465 0.65572 -0.36700
O 	O 	0.19767 0.21754 0.36686 -0.16500
O 	O 	0.80178 0.75727 0.49015 -0.17100
O 	O 	0.79290 0.21217 0.46541 -0.15900
O 	O 	0.20880 0.74778 0.68841 -0.16200
C 	C 	0.26278 0.34724 0.78804 0.15100
H 	H 	0.28706 0.29887 0.87961 0.02600
O 	O 	0.21950 0.33807 0.80631 -0.15900
C 	C 	0.75543 0.62810 0.82420 0.15300
H 	H 	0.73820 0.69637 0.93945 0.03200
O 	O 	0.79849 0.60794 0.84618 -0.16300
S 	S 	0.73694 0.32511 0.10988 0.38700
O 	O 	0.78559 0.39675 0.08574 -0.18000
O 	O 	0.74170 0.15388 0.10956 -0.18600
O 	O 	0.69794 0.33966 0.93119 -0.28000
H 	H 	0.67551 0.24467 0.90894 0.17500
S 	S 	0.24227 0.64553 0.23098 0.38800
O 	O 	0.19735 0.54428 0.15094 -0.18000
O 	O 	0.22761 0.80319 0.33167 -0.18600
O 	O 	0.27527 0.67148 0.05752 -0.27400
H 	H 	0.29407 0.77333 0.10477 0.17100
C 	C 	0.44576 0.96264 0.30832 0.14400
H 	H 	0.43889 0.99969 0.17906 0.02900
O 	O 	0.41656 0.86939 0.34879 -0.17900
C 	C 	0.55440 0.03739 0.69167 0.15600
H 	H 	0.56142 0.99973 0.82047 0.02400
O 	O 	0.58346 0.13139 0.65172 -0.17700
