data_crystal

_cell_length_a 10.99934
_cell_length_b 10.98846
_cell_length_c 18.82462
_cell_angle_alpha 90.50758
_cell_angle_beta  89.88254
_cell_angle_gamma 60.23102

_symmetry_space_group_name_	'P 1'
_symmetry_space_group_name_H-M	'P 1'

loop_
_symmetry_equiv_pos_as_xyz
  x,y,z

loop_
_atom_site_label
_atom_site_type_symbol
_atom_site_fract_x
_atom_site_fract_y
_atom_site_fract_z
_atom_site_charge
O 	O 	0.50738 0.25570 0.58144 -0.47500
O 	O 	0.28032 0.52735 0.57893 -0.51700
C 	C 	0.23951 0.64582 0.61030 0.42400
O 	O 	0.26051 0.73959 0.58459 -0.49600
O 	O 	0.53230 0.69508 0.57382 -0.53500
C 	C 	0.65328 0.62207 0.60097 0.38500
O 	O 	0.74484 0.50350 0.57637 -0.50100
O 	O 	0.69912 0.27656 0.57196 -0.53500
C 	C 	0.63036 0.22487 0.60109 0.42400
O 	O 	0.49894 0.25650 0.41986 -0.47400
O 	O 	0.27250 0.52808 0.42915 -0.51400
C 	C 	0.21793 0.65150 0.40295 0.42700
O 	O 	0.25206 0.74038 0.42301 -0.46300
O 	O 	0.52448 0.69581 0.42404 -0.50300
C 	C 	0.64558 0.62429 0.39363 0.40400
O 	O 	0.73639 0.50429 0.41479 -0.49800
O 	O 	0.69130 0.27729 0.42217 -0.53100
C 	C 	0.61718 0.22838 0.39519 0.42700
Cr	Cr	0.39296 0.39792 0.50224 1.53700
Cr	Cr	0.39834 0.70848 0.50125 1.53100
Cr	Cr	0.70867 0.39357 0.49646 1.52800
O 	O 	0.49999 0.49999 0.49998 -0.74000
C 	C 	0.58893 0.81570 0.78000 -0.04100
H 	H 	0.62591 0.89128 0.78900 0.00400
H 	H 	0.48517 0.85700 0.80666 0.02000
C 	C 	0.57363 0.80163 0.69953 -0.04800
H 	H 	0.46193 0.83765 0.68758 0.02500
H 	H 	0.60394 0.86979 0.66993 0.00100
H 	H 	0.87482 0.69809 0.77981 -0.00500
H 	H 	0.85351 0.67030 0.66165 -0.00200
C 	C 	0.83845 0.62089 0.77178 -0.04100
C 	C 	0.64552 0.56763 0.80095 -0.04200
C 	C 	0.69788 0.67253 0.81234 -0.08600
H 	H 	0.72223 0.46356 0.82230 0.03700
H 	H 	0.54476 0.60390 0.82990 0.03800
C 	C 	0.66827 0.64692 0.67650 -0.07800
C 	C 	0.82202 0.60413 0.69237 -0.04700
C 	C 	0.62448 0.55514 0.72089 -0.05200
H 	H 	0.51260 0.58836 0.71105 0.04300
H 	H 	0.68570 0.44373 0.70427 0.04600
H 	H 	0.91967 0.51796 0.79248 0.01000
H 	H 	0.89406 0.49305 0.67661 0.01500
C 	C 	0.69043 0.13909 0.82084 -0.13100
C 	C 	0.79457 0.14268 0.78027 0.06900
C 	C 	0.78693 0.15271 0.70805 0.07400
C 	C 	0.57601 0.14182 0.70908 0.02200
C 	C 	0.57804 0.14230 0.78254 0.01100
C 	C 	0.92834 0.14524 0.78357 -0.20600
C 	C 	0.91934 0.15818 0.70199 -0.20700
C 	C 	0.67392 0.16062 0.67021 -0.14600
H 	H 	0.48954 0.13855 0.68346 0.05300
H 	H 	0.49304 0.13675 0.80853 0.05800
H 	H 	0.01593 0.04493 0.80238 0.18400
H 	H 	0.91705 0.24007 0.81109 0.05400
H 	H 	0.90342 0.26000 0.68253 0.05600
H 	H 	0.00285 0.06466 0.67370 0.17700
C 	C 	0.17751 0.66994 0.83435 -0.12800
C 	C 	0.15236 0.57793 0.79353 0.07200
C 	C 	0.16085 0.57578 0.71985 0.07000
C 	C 	0.21066 0.76573 0.72534 0.00100
C 	C 	0.20767 0.76373 0.79910 -0.00100
C 	C 	0.22721 0.42192 0.79679 -0.08900
C 	C 	0.23382 0.42009 0.71642 -0.09300
C 	C 	0.19309 0.66735 0.68439 -0.13400
H 	H 	0.23642 0.83897 0.70095 0.01600
H 	H 	0.22472 0.83902 0.82854 0.01700
H 	H 	0.16037 0.38112 0.81823 0.08100
H 	H 	0.33078 0.37999 0.82268 0.05800
H 	H 	0.34110 0.37696 0.69498 0.06400
H 	H 	0.16897 0.38047 0.69088 0.07700
C 	C 	0.66143 0.67581 0.17106 -0.13400
C 	C 	0.73367 0.54425 0.20321 0.05300
C 	C 	0.73621 0.53332 0.27629 0.05500
C 	C 	0.59714 0.78407 0.28934 0.00700
C 	C 	0.59091 0.79545 0.21510 0.01600
C 	C 	0.88672 0.43798 0.19758 -0.09000
C 	C 	0.88962 0.43089 0.27711 -0.08900
C 	C 	0.66700 0.65152 0.32031 -0.13100
H 	H 	0.54556 0.87731 0.32223 0.01400
H 	H 	0.53870 0.89794 0.19194 0.01100
H 	H 	0.95090 0.48125 0.17697 0.01500
H 	H 	0.90720 0.33949 0.17076 0.02900
H 	H 	0.91804 0.32651 0.29740 0.02700
H 	H 	0.94923 0.47643 0.30208 0.00800
C 	C 	0.64991 0.15478 0.17650 -0.13600
C 	C 	0.56155 0.12485 0.21635 0.07700
C 	C 	0.56130 0.13100 0.28945 0.07300
C 	C 	0.75304 0.17768 0.28525 0.00400
C 	C 	0.74712 0.17962 0.21148 0.00700
C 	C 	0.40611 0.19554 0.21200 -0.08800
C 	C 	0.40481 0.20222 0.29197 -0.09100
C 	C 	0.65243 0.16510 0.32501 -0.13500
H 	H 	0.82736 0.19856 0.31139 0.01400
H 	H 	0.81761 0.20028 0.18106 0.01400
H 	H 	0.36720 0.12692 0.19047 0.10500
H 	H 	0.36156 0.29947 0.18639 0.06300
H 	H 	0.35922 0.31047 0.31232 0.07000
H 	H 	0.36567 0.13735 0.31730 0.10400
C 	C 	0.10583 0.69795 0.19063 -0.09000
C 	C 	0.07616 0.81677 0.23105 0.04100
C 	C 	0.09157 0.81079 0.30313 0.08100
C 	C 	0.13331 0.57430 0.30063 0.02800
C 	C 	0.12416 0.57886 0.22640 0.01200
C 	C 	0.11088 0.93127 0.22163 0.01000
C 	C 	0.13210 0.92386 0.30161 -0.12000
C 	C 	0.13670 0.68339 0.33831 -0.12400
H 	H 	0.15175 0.48065 0.32769 0.04900
H 	H 	0.13934 0.48760 0.19719 0.05600
H 	H 	0.02102 0.03043 0.20506 0.14800
H 	H 	0.05746 0.02107 0.33078 0.16800
O 	O 	0.08940 0.82569 0.93057 -0.44900
O 	O 	0.81846 0.05444 0.92985 -0.47900
C 	C 	0.70317 0.09876 0.89528 0.40600
O 	O 	0.60606 0.07715 0.91551 -0.42600
O 	O 	0.64655 0.80668 0.91757 -0.54200
C 	C 	0.72279 0.68727 0.88849 0.39700
O 	O 	0.83717 0.59341 0.91525 -0.50100
O 	O 	0.06520 0.63553 0.93157 -0.45100
C 	C 	0.11831 0.70606 0.90581 0.40900
O 	O 	0.06826 0.82889 0.09184 -0.43500
O 	O 	0.79887 0.05741 0.07934 -0.50100
C 	C 	0.67428 0.10757 0.10372 0.41600
O 	O 	0.58493 0.08035 0.07678 -0.43900
O 	O 	0.62696 0.80965 0.06706 -0.55200
C 	C 	0.69783 0.69186 0.09862 0.42400
O 	O 	0.81604 0.59661 0.07651 -0.52200
O 	O 	0.04561 0.63850 0.08106 -0.46200
C 	C 	0.08457 0.71458 0.11498 0.41200
Cr	Cr	0.93765 0.93854 0.00761 1.43400
Cr	Cr	0.62533 0.93737 0.99452 1.50600
Cr	Cr	0.93794 0.62523 0.00119 1.47800
O 	O 	0.83364 0.83371 0.00110 -0.83600
Cl	Cl	0.26263 0.88585 0.16719 -0.34000
N 	N 	0.27727 0.87379 0.31982 0.02300
O 	O 	0.37202 0.74691 0.30155 -0.08800
O 	O 	0.30737 0.94607 0.36427 -0.19400
