data_crystal

_cell_length_a 11.00618
_cell_length_b 11.00618
_cell_length_c 18.87420
_cell_angle_alpha 90.00002
_cell_angle_beta  89.99993
_cell_angle_gamma 120.00018

_symmetry_space_group_name_	'P 1'
_symmetry_space_group_name_H-M	'P 1'

loop_
_symmetry_equiv_pos_as_xyz
  x,y,z

loop_
_atom_site_label
_atom_site_type_symbol
_atom_site_fract_x
_atom_site_fract_y
_atom_site_fract_z
_atom_site_charge
C 	C 	0.52097 0.45419 0.14560 0.42000
C 	C 	0.54581 0.06677 0.14560 0.41900
C 	C 	0.93323 0.47903 0.14560 0.42100
C 	C 	0.45986 0.51987 0.85249 0.41700
C 	C 	0.06000 0.54014 0.85249 0.40400
C 	C 	0.48013 0.94000 0.85249 0.40400
C 	C 	0.39128 0.95511 0.45808 -0.01200
C 	C 	0.04488 0.43616 0.45808 -0.01200
C 	C 	0.56383 0.60872 0.45808 0.00600
C 	C 	0.06413 0.44173 0.53087 0.01700
C 	C 	0.37761 0.93586 0.53087 0.01700
C 	C 	0.55826 0.62239 0.53087 0.00800
C 	C 	0.75370 0.12002 0.58677 -0.05800
C 	C 	0.87997 0.63368 0.58677 -0.05900
C 	C 	0.36633 0.24630 0.58677 -0.05200
C 	C 	0.94844 0.71744 0.44710 -0.04300
C 	C 	0.76900 0.05155 0.44709 -0.04200
C 	C 	0.28256 0.23100 0.44710 -0.04800
C 	C 	0.87837 0.13560 0.56081 -0.01400
C 	C 	0.86439 0.74277 0.56082 -0.01600
C 	C 	0.25724 0.12163 0.56082 -0.02000
C 	C 	0.89843 0.78416 0.49094 -0.03500
C 	C 	0.88573 0.10156 0.49094 -0.03300
C 	C 	0.21584 0.11427 0.49094 -0.03200
C 	C 	0.51622 0.45425 0.35439 0.41900
C 	C 	0.54575 0.06197 0.35439 0.41500
C 	C 	0.93803 0.48378 0.35439 0.41500
C 	C 	0.45758 0.51948 0.64632 0.42700
C 	C 	0.06190 0.54242 0.64632 0.43100
C 	C 	0.48052 0.93810 0.64632 0.43100
C 	C 	0.49740 0.00513 0.92270 -0.10600
C 	C 	0.99487 0.49227 0.92270 -0.10700
C 	C 	0.50773 0.50260 0.92270 -0.12600
C 	C 	0.97204 0.49233 0.07072 -0.11900
C 	C 	0.52028 0.02796 0.07072 -0.11900
C 	C 	0.50767 0.47972 0.07072 -0.12800
C 	C 	0.37908 0.98198 0.96426 0.03500
C 	C 	0.01802 0.39710 0.96426 0.03600
C 	C 	0.60290 0.62092 0.96426 0.04700
C 	C 	0.02096 0.40870 0.03907 0.04100
C 	C 	0.38775 0.97905 0.03907 0.04000
C 	C 	0.59130 0.61225 0.03907 0.04700
C 	C 	0.63959 0.07331 0.02768 0.00600
C 	C 	0.92669 0.56628 0.02768 0.00600
C 	C 	0.43372 0.36041 0.02768 0.00500
C 	C 	0.94128 0.56913 0.95506 0.00500
C 	C 	0.62785 0.05872 0.95506 0.00500
C 	C 	0.43087 0.37215 0.95506 0.01000
C 	C 	0.25211 0.96051 0.93419 -0.04600
C 	C 	0.03949 0.29160 0.93419 -0.04500
C 	C 	0.70840 0.74789 0.93419 -0.04900
C 	C 	0.07027 0.33439 0.07987 -0.05500
C 	C 	0.26412 0.92973 0.07987 -0.05600
C 	C 	0.66561 0.73588 0.07987 -0.05600
C 	C 	0.13314 0.91741 0.97566 -0.03100
C 	C 	0.08259 0.21573 0.97566 -0.02900
C 	C 	0.78427 0.86686 0.97566 -0.02700
C 	C 	0.09957 0.23794 0.04820 -0.02500
C 	C 	0.13838 0.90043 0.04820 -0.02700
C 	C 	0.76206 0.86162 0.04820 -0.02600
C 	C 	0.49715 0.99253 0.57472 -0.15200
C 	C 	0.00747 0.50462 0.57472 -0.15200
C 	C 	0.49538 0.50285 0.57472 -0.13500
C 	C 	0.99069 0.51385 0.42743 -0.10800
C 	C 	0.52316 0.00931 0.42743 -0.10800
C 	C 	0.48615 0.47684 0.42743 -0.12500
C 	C 	0.63122 0.05729 0.54448 0.07000
C 	C 	0.94271 0.57393 0.54448 0.06900
C 	C 	0.42607 0.36878 0.54448 0.05300
C 	C 	0.95997 0.60159 0.47161 0.03800
C 	C 	0.64162 0.04003 0.47161 0.03800
C 	C 	0.39841 0.35837 0.47161 0.04700
Cr	Cr	0.76855 0.54132 0.25066 1.53400
Cr	Cr	0.45868 0.22723 0.25066 1.53400
Cr	Cr	0.77277 0.23145 0.25066 1.53400
Cr	Cr	0.54132 0.76855 0.74934 1.53400
Cr	Cr	0.22723 0.45868 0.74934 1.53400
Cr	Cr	0.23145 0.77277 0.74934 1.53300
H 	H 	0.74398 0.12075 0.05014 0.04200
H 	H 	0.87925 0.62323 0.05014 0.04100
H 	H 	0.37677 0.25603 0.05014 0.04100
H 	H 	0.91536 0.63611 0.92425 0.03700
H 	H 	0.72075 0.08464 0.92425 0.03900
H 	H 	0.36389 0.27925 0.92425 0.03500
H 	H 	0.24344 0.98202 0.87922 0.03100
H 	H 	0.01798 0.26142 0.87922 0.03200
H 	H 	0.73858 0.75657 0.87922 0.03500
H 	H 	0.08794 0.35064 0.13626 0.04100
H 	H 	0.26270 0.91205 0.13626 0.04000
H 	H 	0.64936 0.73730 0.13626 0.04300
H 	H 	0.75091 0.14816 0.64150 0.05200
H 	H 	0.85184 0.60275 0.64150 0.05000
H 	H 	0.39725 0.24909 0.64150 0.04800
H 	H 	0.98576 0.76530 0.39589 0.04200
H 	H 	0.77953 0.01423 0.39589 0.04400
H 	H 	0.23470 0.22046 0.39589 0.04200
H 	H 	0.96880 0.17273 0.59515 0.02800
H 	H 	0.82727 0.79607 0.59515 0.02300
H 	H 	0.20394 0.03120 0.59516 0.02600
H 	H 	0.88572 0.86792 0.47005 0.02700
H 	H 	0.98220 0.11427 0.47005 0.03300
H 	H 	0.13208 0.01779 0.47005 0.02800
O 	O 	0.91096 0.57241 0.17101 -0.49000
O 	O 	0.42759 0.33855 0.17101 -0.49100
O 	O 	0.66145 0.08904 0.17101 -0.48900
O 	O 	0.57241 0.91096 0.82899 -0.48200
O 	O 	0.33855 0.42759 0.82899 -0.48300
O 	O 	0.08904 0.66145 0.82899 -0.48300
O 	O 	0.63975 0.52853 0.17560 -0.52900
O 	O 	0.47147 0.11122 0.17560 -0.52700
O 	O 	0.88878 0.36025 0.17560 -0.52600
O 	O 	0.52853 0.63975 0.82440 -0.52800
O 	O 	0.11122 0.47147 0.82440 -0.52600
O 	O 	0.36025 0.88878 0.82440 -0.52600
O 	O 	0.90933 0.57240 0.33154 -0.49100
O 	O 	0.42760 0.33693 0.33154 -0.49300
O 	O 	0.66307 0.09067 0.33154 -0.49000
O 	O 	0.57240 0.90933 0.66846 -0.49300
O 	O 	0.33693 0.42760 0.66846 -0.48900
O 	O 	0.09067 0.66307 0.66846 -0.49400
O 	O 	0.63824 0.52852 0.32441 -0.52300
O 	O 	0.47148 0.10972 0.32441 -0.52000
O 	O 	0.89028 0.36176 0.32441 -0.52000
O 	O 	0.52852 0.63824 0.67559 -0.53600
O 	O 	0.10972 0.47148 0.67559 -0.53900
O 	O 	0.36176 0.89028 0.67559 -0.53900
O 	O 	0.66667 0.33333 0.25063 -0.74400
O 	O 	0.33333 0.66667 0.74937 -0.74200
H 	H 	0.03646 0.89666 0.95088 0.02400
H 	H 	0.10335 0.13980 0.95088 0.03000
H 	H 	0.86020 0.96354 0.95088 0.02700
H 	H 	0.13383 0.17906 0.08018 0.02900
H 	H 	0.04523 0.86617 0.08018 0.02400
H 	H 	0.82094 0.95477 0.08018 0.02700
H 	H 	0.29910 0.92377 0.42562 0.03000
H 	H 	0.07622 0.37532 0.42562 0.03100
H 	H 	0.62467 0.70090 0.42562 0.02800
H 	H 	0.12469 0.39769 0.55272 0.03400
H 	H 	0.27300 0.87530 0.55272 0.03300
H 	H 	0.60230 0.72700 0.55272 0.03700
