data_crystal

_cell_length_a 19.23110
_cell_length_b 11.08503
_cell_length_c 18.66968
_cell_angle_alpha 89.56611
_cell_angle_beta  89.81815
_cell_angle_gamma 89.80502

_symmetry_space_group_name_	'P 1'
_symmetry_space_group_name_H-M	'P 1'

loop_
_symmetry_equiv_pos_as_xyz
  x,y,z

loop_
_atom_site_label
_atom_site_type_symbol
_atom_site_fract_x
_atom_site_fract_y
_atom_site_fract_z
_atom_site_charge
O 	O 	0.78429 0.29036 0.83054 -0.47200
O 	O 	0.21571 0.29036 0.16946 -0.41100
O 	O 	0.28429 0.79036 0.83054 -0.47400
O 	O 	0.71571 0.79036 0.16946 -0.40100
O 	O 	0.76261 0.04107 0.82523 -0.54900
O 	O 	0.23739 0.04107 0.17477 -0.54900
O 	O 	0.26261 0.54107 0.82523 -0.52000
O 	O 	0.73739 0.54107 0.17477 -0.52500
C 	C 	0.72752 0.95480 0.85298 0.45300
C 	C 	0.27534 0.96134 0.14443 0.46000
C 	C 	0.22752 0.45479 0.85297 0.42100
C 	C 	0.77534 0.46135 0.14442 0.42500
O 	O 	0.66739 0.92416 0.82997 -0.45300
O 	O 	0.33261 0.92416 0.17003 -0.45500
O 	O 	0.16739 0.42416 0.82997 -0.45200
O 	O 	0.83261 0.42416 0.17003 -0.46000
O 	O 	0.55398 0.08142 0.82178 -0.51600
O 	O 	0.44602 0.08142 0.17822 -0.52300
O 	O 	0.05398 0.58142 0.82178 -0.50400
O 	O 	0.94602 0.58142 0.17822 -0.51400
C 	C 	0.52979 0.17615 0.85099 0.43600
C 	C 	0.47130 0.17786 0.15019 0.45100
C 	C 	0.02979 0.67615 0.85099 0.44500
C 	C 	0.97130 0.67785 0.15019 0.44400
O 	O 	0.54321 0.28317 0.82674 -0.47200
O 	O 	0.45679 0.28317 0.17326 -0.48900
O 	O 	0.04321 0.78317 0.82674 -0.46600
O 	O 	0.95679 0.78317 0.17326 -0.48600
O 	O 	0.67835 0.37500 0.82272 -0.50600
O 	O 	0.32165 0.37500 0.17728 -0.45600
O 	O 	0.17835 0.87500 0.82272 -0.50100
O 	O 	0.82165 0.87500 0.17728 -0.44600
C 	C 	0.73778 0.36409 0.85222 0.41300
C 	C 	0.27597 0.31409 0.14025 0.29100
C 	C 	0.23778 0.86410 0.85222 0.41100
C 	C 	0.77597 0.81410 0.14025 0.29300
O 	O 	0.78506 0.28930 0.67058 -0.41900
O 	O 	0.21494 0.28930 0.32942 -0.47500
O 	O 	0.28506 0.78930 0.67058 -0.48700
O 	O 	0.71494 0.78930 0.32942 -0.39900
O 	O 	0.76333 0.04009 0.67694 -0.54700
O 	O 	0.23667 0.04009 0.32306 -0.45800
O 	O 	0.26333 0.54009 0.67694 -0.47700
O 	O 	0.73667 0.54009 0.32306 -0.52100
C 	C 	0.73053 0.95060 0.65078 0.44600
C 	C 	0.29037 0.00196 0.35997 0.22800
C 	C 	0.21308 0.49658 0.63950 0.32300
C 	C 	0.76910 0.44798 0.34908 0.39800
O 	O 	0.66816 0.92311 0.67000 -0.45400
O 	O 	0.33184 0.92311 0.33000 -0.38000
O 	O 	0.16816 0.42311 0.67000 -0.43000
O 	O 	0.83184 0.42311 0.33000 -0.46700
O 	O 	0.55469 0.08044 0.67348 -0.52000
O 	O 	0.44531 0.08044 0.32652 -0.51600
O 	O 	0.05469 0.58044 0.67348 -0.50600
O 	O 	0.94531 0.58044 0.32652 -0.49800
C 	C 	0.53329 0.17467 0.64318 0.43600
C 	C 	0.47128 0.17773 0.35335 0.44100
C 	C 	0.03234 0.67787 0.64355 0.43900
C 	C 	0.97068 0.67373 0.35447 0.41100
O 	O 	0.54398 0.28211 0.66677 -0.47900
O 	O 	0.45602 0.28211 0.33323 -0.47100
O 	O 	0.04398 0.78211 0.66677 -0.46900
O 	O 	0.95602 0.78211 0.33323 -0.46800
O 	O 	0.67907 0.37403 0.67443 -0.48000
O 	O 	0.32093 0.37403 0.32557 -0.52200
O 	O 	0.17907 0.87403 0.67443 -0.51700
O 	O 	0.82093 0.87403 0.32557 -0.46300
C 	C 	0.72376 0.30990 0.63899 0.28800
C 	C 	0.26001 0.36426 0.35181 0.42600
C 	C 	0.24132 0.86729 0.64914 0.41700
C 	C 	0.77411 0.81436 0.36152 0.30400
Cr	Cr	0.76926 0.16375 0.75073 1.53600
Cr	Cr	0.23074 0.16375 0.24927 1.53400
Cr	Cr	0.26926 0.66375 0.75073 1.53600
Cr	Cr	0.73074 0.66375 0.24927 1.53300
Cr	Cr	0.61264 0.00991 0.74878 1.53600
Cr	Cr	0.38736 0.00991 0.25122 1.53100
Cr	Cr	0.11264 0.50991 0.74878 1.54100
Cr	Cr	0.88736 0.50991 0.25122 1.54300
Cr	Cr	0.61419 0.32240 0.74771 1.53600
Cr	Cr	0.38581 0.32240 0.25229 1.53900
Cr	Cr	0.11419 0.82240 0.74771 1.54400
Cr	Cr	0.88581 0.82240 0.25229 1.53600
O 	O 	0.66536 0.16535 0.74907 -0.74100
O 	O 	0.33464 0.16535 0.25093 -0.74900
O 	O 	0.16536 0.66535 0.74907 -0.73900
O 	O 	0.83464 0.66535 0.25093 -0.74600
C 	C 	0.49847 0.16029 0.92279 -0.20100
C 	C 	0.50477 0.17007 0.07987 -0.21100
C 	C 	0.99847 0.66029 0.92279 -0.21400
C 	C 	0.00477 0.67005 0.07987 -0.20400
C 	C 	0.51032 0.06458 0.04467 0.09500
C 	C 	0.51329 0.06142 0.96458 0.08600
C 	C 	0.01031 0.56456 0.04466 0.11100
C 	C 	0.01327 0.56141 0.96458 0.11300
H 	H 	0.51179 0.25528 0.05228 0.10500
H 	H 	0.47468 0.23989 0.94549 0.10400
H 	H 	0.01180 0.75527 0.05228 0.10600
H 	H 	0.97469 0.73990 0.94549 0.10700
C 	C 	0.76466 0.44187 0.06870 -0.13100
C 	C 	0.25523 0.39786 0.91784 -0.13500
C 	C 	0.26466 0.94187 0.06870 -0.14100
C 	C 	0.75525 0.89784 0.91783 -0.14800
C 	C 	0.70029 0.46241 0.03727 0.07000
C 	C 	0.30521 0.45706 0.95924 0.09000
C 	C 	0.20029 0.96244 0.03727 0.08500
C 	C 	0.80523 0.95704 0.95922 0.11600
C 	C 	0.69201 0.45417 0.96415 0.03400
C 	C 	0.31483 0.42674 0.03067 0.00300
C 	C 	0.19202 0.95420 0.96414 0.03500
C 	C 	0.81483 0.92675 0.03066 0.01600
C 	C 	0.81529 0.42533 0.94966 0.00600
C 	C 	0.23301 0.26464 0.01899 -0.02300
C 	C 	0.31529 0.92532 0.94966 0.00400
C 	C 	0.73301 0.76464 0.01899 -0.02400
C 	C 	0.82319 0.43497 0.02346 0.01100
C 	C 	0.22489 0.29274 0.94624 0.03900
C 	C 	0.32319 0.93495 0.02346 0.02100
C 	C 	0.72489 0.79273 0.94623 0.04800
C 	C 	0.63097 0.41042 0.05388 -0.12800
C 	C 	0.31598 0.58881 0.97233 -0.12800
C 	C 	0.13096 0.91049 0.05387 -0.13200
C 	C 	0.81601 0.08878 0.97228 -0.14700
C 	C 	0.62076 0.40119 0.97311 0.03100
C 	C 	0.32596 0.55595 0.05092 0.04800
C 	C 	0.12076 0.90124 0.97310 0.03400
C 	C 	0.82595 0.05597 0.05089 0.03100
C 	C 	0.74846 0.42328 0.92013 -0.11500
C 	C 	0.27463 0.33663 0.06309 -0.04500
C 	C 	0.24847 0.92330 0.92013 -0.10800
C 	C 	0.77463 0.83665 0.06309 -0.04200
H 	H 	0.86069 0.40868 0.91685 0.06000
H 	H 	0.20216 0.19332 0.04214 0.05300
H 	H 	0.36070 0.90866 0.91685 0.06300
H 	H 	0.70217 0.69332 0.04214 0.05900
H 	H 	0.87493 0.43455 0.04516 0.05900
H 	H 	0.18860 0.24069 0.91488 0.05400
H 	H 	0.37493 0.93450 0.04516 0.06300
H 	H 	0.68860 0.74069 0.91488 0.05400
H 	H 	0.09632 0.97697 0.08062 0.09100
H 	H 	0.76891 0.14410 0.96085 0.09000
H 	H 	0.59632 0.47689 0.08064 0.08100
H 	H 	0.26886 0.64410 0.96094 0.08800
H 	H 	0.63498 0.32132 0.08129 0.08300
H 	H 	0.36436 0.62253 0.94648 0.08100
H 	H 	0.13496 0.82138 0.08128 0.08600
H 	H 	0.86442 0.12246 0.94644 0.08100
H 	H 	0.61603 0.30721 0.95361 0.04500
H 	H 	0.37931 0.57345 0.07118 0.04900
H 	H 	0.11602 0.80726 0.95361 0.04500
H 	H 	0.87929 0.07350 0.07117 0.04400
C 	C 	0.50371 0.17902 0.42181 -0.15300
C 	C 	0.51393 0.15921 0.56968 -0.15300
C 	C 	0.00801 0.65254 0.42055 -0.12300
C 	C 	0.01512 0.67342 0.56888 -0.14600
C 	C 	0.48704 0.27550 0.46671 0.07500
C 	C 	0.48877 0.26170 0.53826 0.05400
C 	C 	0.04228 0.74850 0.45134 0.04900
C 	C 	0.04815 0.75576 0.52399 0.05300
C 	C 	0.54256 0.06643 0.52471 0.06600
C 	C 	0.53900 0.07931 0.44931 0.07600
C 	C 	0.98676 0.56956 0.53997 0.08500
C 	C 	0.99228 0.54989 0.46491 0.06200
C 	C 	0.42417 0.35623 0.47248 -0.08000
C 	C 	0.42596 0.33562 0.55333 -0.07300
C 	C 	0.03617 0.88215 0.44215 -0.07600
C 	C 	0.04450 0.89002 0.52270 -0.07200
H 	H 	0.98472 0.91374 0.42384 0.09200
H 	H 	0.09447 0.92523 0.54070 0.08700
H 	H 	0.37783 0.31898 0.44544 0.06500
H 	H 	0.43799 0.41608 0.58633 0.06700
C 	C 	0.73890 0.37687 0.41006 -0.12400
C 	C 	0.23342 0.46737 0.56683 -0.08400
C 	C 	0.27922 0.98355 0.43685 -0.00200
C 	C 	0.76141 0.89907 0.58620 -0.14000
C 	C 	0.78345 0.30397 0.44846 0.06200
C 	C 	0.19760 0.37446 0.53657 0.05100
C 	C 	0.32341 0.90579 0.47292 0.02000
C 	C 	0.75041 0.78334 0.56157 0.08800
C 	C 	0.77302 0.27048 0.51938 0.02900
C 	C 	0.20741 0.34306 0.46628 0.05900
C 	C 	0.31345 0.87709 0.54381 0.07400
C 	C 	0.75697 0.75810 0.48986 0.02200
C 	C 	0.66504 0.38252 0.51768 -0.00100
C 	C 	0.27851 0.51967 0.44806 0.03400
C 	C 	0.21962 0.02065 0.55078 0.01600
C 	C 	0.80267 0.95242 0.46596 0.02500
C 	C 	0.67421 0.40021 0.44193 0.01500
C 	C 	0.27359 0.54400 0.52230 -0.01500
C 	C 	0.22756 0.04366 0.47657 -0.06700
C 	C 	0.79715 0.97652 0.53964 0.05600
C 	C 	0.85640 0.33173 0.46020 -0.07800
C 	C 	0.12182 0.38307 0.52774 -0.07800
C 	C 	0.39933 0.92014 0.48234 -0.03300
C 	C 	0.69989 0.68466 0.57404 -0.10200
C 	C 	0.84826 0.28755 0.53500 -0.08600
C 	C 	0.13189 0.33830 0.45326 -0.08000
C 	C 	0.38903 0.88536 0.55968 -0.09700
C 	C 	0.70949 0.65569 0.49457 -0.07200
C 	C 	0.71893 0.32094 0.55862 -0.07900
C 	C 	0.24858 0.41298 0.42216 -0.14900
C 	C 	0.26034 0.93010 0.58314 -0.12200
C 	C 	0.77306 0.84515 0.43836 -0.06200
H 	H 	0.63694 0.45310 0.41157 0.05500
H 	H 	0.29619 0.62508 0.54398 0.05100
H 	H 	0.19434 0.10743 0.44983 0.06600
H 	H 	0.81501 0.06001 0.56003 0.02200
H 	H 	0.86484 0.43100 0.45872 0.07700
H 	H 	0.10603 0.47884 0.52923 0.06900
H 	H 	0.41335 0.01585 0.47489 0.03600
H 	H 	0.64682 0.71686 0.58774 0.09000
H 	H 	0.88888 0.27741 0.42377 0.09300
H 	H 	0.09228 0.32561 0.56500 0.10000
H 	H 	0.42984 0.85342 0.45143 0.08100
H 	H 	0.72106 0.61338 0.61013 0.07200
H 	H 	0.88038 0.20672 0.54603 0.08200
H 	H 	0.11181 0.24601 0.44427 0.08700
H 	H 	0.41149 0.79563 0.57351 0.07300
H 	H 	0.74160 0.57457 0.48645 0.05800
H 	H 	0.85461 0.35842 0.57444 0.10000
H 	H 	0.11772 0.40560 0.41159 0.08600
H 	H 	0.40150 0.95904 0.59766 0.08100
H 	H 	0.66243 0.66864 0.46098 0.08300
N 	N 	0.51904 0.95349 0.08492 -0.00600
O 	O 	0.49073 0.85354 0.06370 -0.09600
O 	O 	0.56155 0.94981 0.13904 -0.07400
N 	N 	0.53355 0.94904 0.93247 -0.00100
O 	O 	0.58673 0.88979 0.95729 -0.07800
O 	O 	0.49250 0.89665 0.88708 -0.11100
N 	N 	0.01901 0.45346 0.08490 -0.01300
O 	O 	0.99069 0.35352 0.06368 -0.10700
O 	O 	0.06152 0.44974 0.13903 -0.09100
N 	N 	0.03352 0.44902 0.93246 -0.01200
O 	O 	0.08669 0.38975 0.95727 -0.08300
O 	O 	0.99248 0.39667 0.88705 -0.11900
C 	C 	0.44196 0.48355 0.45143 0.15000
H 	H 	0.43506 0.55611 0.48955 0.02400
O 	O 	0.46369 0.50713 0.39146 -0.19400
C 	C 	0.36641 0.26064 0.58111 0.12700
H 	H 	0.34665 0.18592 0.55000 0.00600
O 	O 	0.34060 0.28231 0.63940 -0.19000
C 	C 	0.09524 0.93214 0.39910 0.18000
H 	H 	0.14583 0.88869 0.40067 0.01800
O 	O 	0.08629 0.02065 0.36093 -0.23900
C 	C 	0.98108 0.94000 0.55989 0.18100
H 	H 	0.93079 0.89890 0.55126 0.01400
O 	O 	0.98584 0.02527 0.60046 -0.22100
C 	C 	0.60642 0.45076 0.55090 0.10900
H 	H 	0.59332 0.44567 0.60641 0.01200
O 	O 	0.57185 0.52147 0.51547 -0.19300
C 	C 	0.30793 0.60788 0.39665 0.09600
H 	H 	0.29413 0.60443 0.34039 0.03600
O 	O 	0.34898 0.68393 0.41583 -0.18100
C 	C 	0.17100 0.09166 0.59462 0.09000
H 	H 	0.18240 0.10934 0.65045 0.02300
O 	O 	0.11618 0.12638 0.56968 -0.18600
C 	C 	0.83782 0.04194 0.42047 0.07900
H 	H 	0.81136 0.08184 0.37477 0.03500
O 	O 	0.89812 0.06800 0.43235 -0.20000
N 	N 	0.56585 0.48207 0.94704 -0.00900
O 	O 	0.50233 0.46826 0.96969 -0.12200
O 	O 	0.57868 0.56214 0.89742 -0.11700
N 	N 	0.27085 0.60381 0.09721 -0.01100
O 	O 	0.28721 0.65657 0.15676 -0.10200
O 	O 	0.20553 0.59193 0.08052 -0.09500
N 	N 	0.06587 0.98212 0.94701 0.00300
O 	O 	0.00234 0.96835 0.96966 -0.10900
O 	O 	0.07870 0.06209 0.89733 -0.13600
N 	N 	0.77080 0.10389 0.09710 -0.01000
O 	O 	0.78713 0.15694 0.15658 -0.10700
O 	O 	0.70549 0.09191 0.08040 -0.10300
N 	N 	0.57420 0.96009 0.55348 0.00200
O 	O 	0.53902 0.88840 0.59535 -0.12100
O 	O 	0.63042 0.92000 0.52348 -0.08900
N 	N 	0.56619 0.98964 0.40116 0.00900
O 	O 	0.60083 0.02319 0.34444 -0.11200
O 	O 	0.55198 0.87585 0.41015 -0.09200
N 	N 	0.94876 0.49204 0.58737 -0.01800
O 	O 	0.89709 0.53953 0.62272 -0.11600
O 	O 	0.97882 0.39684 0.61445 -0.11800
N 	N 	0.99031 0.42796 0.43703 -0.02000
O 	O 	0.00338 0.40424 0.37017 -0.12700
O 	O 	0.99132 0.33684 0.48124 -0.11000
