data_crystal

_cell_length_a 19.64690
_cell_length_b 17.11410
_cell_length_c 15.41635
_cell_angle_alpha 89.97551
_cell_angle_beta  52.58396
_cell_angle_gamma 89.96023

_symmetry_space_group_name_	'P 1'
_symmetry_space_group_name_H-M	'P 1'

loop_
_symmetry_equiv_pos_as_xyz
  x,y,z

loop_
_atom_site_label
_atom_site_type_symbol
_atom_site_fract_x
_atom_site_fract_y
_atom_site_fract_z
_atom_site_charge
C 	C 	0.38147 0.19962 0.98811 0.45400
C 	C 	0.65913 0.82192 0.95733 0.42000
C 	C 	0.61851 0.19960 0.01183 0.27300
C 	C 	0.34079 0.82218 0.04324 0.32300
C 	C 	0.88165 0.69973 0.98781 0.44600
C 	C 	0.15942 0.32232 0.95645 0.42400
C 	C 	0.11892 0.69949 0.01164 0.25800
C 	C 	0.84066 0.32230 0.04347 0.33600
C 	C 	0.23935 0.22101 0.56119 -0.04800
C 	C 	0.66687 0.72846 0.45664 -0.05400
C 	C 	0.76092 0.22065 0.43848 -0.05000
C 	C 	0.34261 0.71525 0.53199 -0.05300
C 	C 	0.73641 0.71669 0.56372 -0.05100
C 	C 	0.16471 0.22468 0.45999 -0.05800
C 	C 	0.25722 0.72890 0.44554 -0.05200
C 	C 	0.83488 0.22508 0.54050 -0.04500
C 	C 	0.16721 0.75596 0.12207 0.04900
C 	C 	0.70022 0.32342 0.06314 0.09700
C 	C 	0.83398 0.75713 0.87731 0.11100
C 	C 	0.30002 0.32353 0.93638 0.06100
C 	C 	0.66696 0.25635 0.12178 0.06300
C 	C 	0.19975 0.82339 0.06418 0.09600
C 	C 	0.33325 0.25644 0.87783 0.10800
C 	C 	0.79979 0.82359 0.93710 0.06300
C 	C 	0.39445 0.80152 0.21247 0.03000
C 	C 	0.65264 0.17066 0.77918 0.05100
C 	C 	0.60660 0.80174 0.78712 0.04100
C 	C 	0.34733 0.17069 0.22083 0.03200
C 	C 	0.89363 0.30173 0.21277 0.03800
C 	C 	0.15328 0.66988 0.77920 0.04800
C 	C 	0.10634 0.30170 0.78729 0.03500
C 	C 	0.84707 0.67040 0.22050 0.03100
C 	C 	0.32816 0.91542 0.95439 0.17100
C 	C 	0.62742 0.11430 0.11081 0.05400
C 	C 	0.67115 0.91465 0.04724 -0.04600
C 	C 	0.37267 0.11436 0.88906 0.08500
C 	C 	0.82817 0.41547 0.95440 0.17300
C 	C 	0.12743 0.61414 0.11089 0.03500
C 	C 	0.17188 0.41548 0.04547 -0.05400
C 	C 	0.87257 0.61444 0.88913 0.08000
C 	C 	0.35621 0.07844 0.31658 0.04000
C 	C 	0.59980 0.89442 0.69117 0.01700
C 	C 	0.64380 0.07848 0.68341 0.04600
C 	C 	0.40153 0.89415 0.30811 0.01400
C 	C 	0.85554 0.57803 0.31630 0.03200
C 	C 	0.09948 0.39440 0.69137 0.02000
C 	C 	0.14380 0.57832 0.68337 0.03300
C 	C 	0.90045 0.39440 0.30868 0.03100
C 	C 	0.35905 0.19298 0.91891 -0.16100
C 	C 	0.71416 0.85167 0.97732 -0.06100
C 	C 	0.64104 0.19292 0.08090 -0.11300
C 	C 	0.28506 0.85237 0.02448 -0.25100
C 	C 	0.85921 0.69317 0.91868 -0.15200
C 	C 	0.21500 0.35254 0.97529 -0.04600
C 	C 	0.14130 0.69271 0.08092 -0.11900
C 	C 	0.78511 0.35251 0.02453 -0.23900
C 	C 	0.38130 0.81793 0.30872 -0.03200
C 	C 	0.69403 0.13742 0.67710 -0.02400
C 	C 	0.62094 0.81837 0.69022 -0.02800
C 	C 	0.30596 0.13744 0.32293 -0.03100
C 	C 	0.87949 0.31840 0.30949 -0.02000
C 	C 	0.19435 0.63703 0.67687 -0.03400
C 	C 	0.12042 0.31837 0.69059 -0.03400
C 	C 	0.80508 0.63684 0.32247 -0.03400
C 	C 	0.20375 0.14866 0.53972 -0.05000
C 	C 	0.70426 0.79759 0.48115 -0.05400
C 	C 	0.79673 0.14858 0.46026 -0.05200
C 	C 	0.31141 0.79356 0.51532 -0.05400
C 	C 	0.69893 0.64745 0.53968 -0.05200
C 	C 	0.20020 0.29699 0.48200 -0.05600
C 	C 	0.28869 0.65081 0.46129 -0.05400
C 	C 	0.79917 0.29711 0.51819 -0.05100
C 	C 	0.62159 0.69872 0.57458 0.05900
C 	C 	0.27989 0.25062 0.44589 0.06100
C 	C 	0.37497 0.68953 0.41646 0.05800
C 	C 	0.71986 0.25035 0.55387 0.06100
C 	C 	0.12334 0.19589 0.57737 0.05600
C 	C 	0.78086 0.74727 0.44786 0.06100
C 	C 	0.87677 0.19620 0.42302 0.07300
C 	C 	0.22581 0.75563 0.55872 0.05800
C 	C 	0.65845 0.76632 0.59818 0.00800
C 	C 	0.24598 0.17949 0.42306 0.01100
C 	C 	0.34402 0.76596 0.40074 0.00500
C 	C 	0.75399 0.17949 0.57700 0.01300
C 	C 	0.15834 0.26657 0.59848 0.00500
C 	C 	0.74513 0.67916 0.42256 0.00800
C 	C 	0.84155 0.26660 0.40161 0.01000
C 	C 	0.25548 0.67869 0.57630 0.01100
H 	H 	0.39458 0.74409 0.18339 0.03200
H 	H 	0.67310 0.22119 0.79970 0.05600
H 	H 	0.60618 0.74423 0.81626 0.05500
H 	H 	0.32683 0.22124 0.20032 0.03200
H 	H 	0.89377 0.24427 0.18377 0.05000
H 	H 	0.17453 0.71968 0.79982 0.05000
H 	H 	0.10620 0.24424 0.81633 0.05200
H 	H 	0.82675 0.72100 0.19983 0.03500
H 	H 	0.30632 0.95432 0.92074 -0.04100
H 	H 	0.62783 0.08779 0.17408 0.00400
H 	H 	0.69297 0.95296 0.08148 -0.01100
H 	H 	0.37236 0.08788 0.82573 0.00200
H 	H 	0.80623 0.45424 0.92073 -0.01600
H 	H 	0.12764 0.58757 0.17428 -0.02300
H 	H 	0.19382 0.45427 0.07907 0.00500
H 	H 	0.87174 0.58789 0.82623 -0.00500
H 	H 	0.34525 0.04426 0.38288 0.02300
H 	H 	0.59362 0.92275 0.63355 -0.02400
H 	H 	0.65476 0.04443 0.61704 0.02500
H 	H 	0.40789 0.92272 0.36539 -0.02500
H 	H 	0.84420 0.54388 0.38284 0.00800
H 	H 	0.09326 0.42278 0.63384 -0.01900
H 	H 	0.15462 0.54408 0.61725 -0.00300
H 	H 	0.90659 0.42278 0.36626 0.00600
H 	H 	0.20397 0.08720 0.56259 0.05600
H 	H 	0.70817 0.85946 0.45681 0.03100
H 	H 	0.79694 0.08705 0.43735 0.06300
H 	H 	0.31902 0.85254 0.53833 0.02900
H 	H 	0.69568 0.58530 0.56259 0.04500
H 	H 	0.20047 0.35817 0.45783 0.03500
H 	H 	0.28120 0.59161 0.43871 0.03800
H 	H 	0.79844 0.35836 0.54241 0.04700
H 	H 	0.26890 0.22014 0.60377 0.05000
H 	H 	0.63893 0.73151 0.41218 0.03500
H 	H 	0.73165 0.21949 0.39555 0.04900
H 	H 	0.37674 0.70751 0.56804 0.04000
H 	H 	0.76354 0.71199 0.60896 0.05000
H 	H 	0.13500 0.22424 0.41766 0.03100
H 	H 	0.22256 0.73513 0.40991 0.03900
H 	H 	0.86433 0.22495 0.58316 0.05400
N 	N 	0.40868 0.13081 0.99578 -0.27700
N 	N 	0.59132 0.86919 0.00422 -0.36100
N 	N 	0.59132 0.13081 0.00422 -0.30000
N 	N 	0.40868 0.86919 0.99578 -0.24600
N 	N 	0.90868 0.63081 0.99578 -0.26800
N 	N 	0.09132 0.36919 0.00422 -0.37200
N 	N 	0.09132 0.63081 0.00422 -0.31300
N 	N 	0.90868 0.36919 0.99578 -0.23000
N 	N 	0.42141 0.86721 0.15362 -0.25700
N 	N 	0.57859 0.13279 0.84638 -0.21400
N 	N 	0.57859 0.86721 0.84638 -0.22700
N 	N 	0.42141 0.13279 0.15362 -0.24400
N 	N 	0.92141 0.36721 0.15362 -0.23200
N 	N 	0.07859 0.63279 0.84638 -0.22600
N 	N 	0.07859 0.36721 0.84638 -0.22800
N 	N 	0.92141 0.63279 0.15362 -0.22600
N 	N 	0.40384 0.92191 0.93576 -0.27500
N 	N 	0.59616 0.07809 0.06424 -0.23700
N 	N 	0.59616 0.92191 0.06424 -0.26000
N 	N 	0.40384 0.07809 0.93576 -0.22500
N 	N 	0.90384 0.42191 0.93576 -0.25500
N 	N 	0.09616 0.57809 0.06424 -0.26800
N 	N 	0.09616 0.42191 0.06424 -0.25900
N 	N 	0.90384 0.57809 0.93576 -0.24100
N 	N 	0.42625 0.07610 0.21365 -0.24200
N 	N 	0.57375 0.92390 0.78635 -0.26400
N 	N 	0.57375 0.07610 0.78635 -0.23500
N 	N 	0.42625 0.92390 0.21365 -0.27200
N 	N 	0.92625 0.57610 0.21365 -0.23900
N 	N 	0.07375 0.42390 0.78635 -0.26500
N 	N 	0.07375 0.57610 0.78635 -0.27100
N 	N 	0.92625 0.42390 0.21365 -0.24000
Ni	Ni	0.50000 0.13157 -0.00000 1.02000
Ni	Ni	0.50000 0.86843 -0.00000 0.99600
Ni	Ni	-0.00000 0.63157 -0.00000 0.98100
Ni	Ni	0.00000 0.36843 -0.00000 0.96800
Ni	Ni	0.48890 1.00000 0.86231 0.99100
Ni	Ni	0.51110 1.00000 0.13769 0.97800
Ni	Ni	0.98890 0.50000 0.86231 1.05200
Ni	Ni	0.01110 0.50000 0.13769 0.98000
F 	F 	0.40506 0.26552 0.01160 -0.57600
F 	F 	0.66459 0.75210 0.91260 -0.48200
F 	F 	0.59471 0.26551 0.98851 -0.41600
F 	F 	0.33692 0.75157 0.08529 -0.50300
F 	F 	0.90539 0.76580 0.01081 -0.55200
F 	F 	0.16360 0.25171 0.91425 -0.48300
F 	F 	0.09661 0.76564 0.98679 -0.42400
F 	F 	0.83657 0.25167 0.08563 -0.48800
N 	N 	0.53367 0.67225 0.64755 -0.14300
H 	H 	0.51922 0.64589 0.71706 0.09200
C 	C 	0.47003 0.72868 0.66988 -0.08500
H 	H 	0.40629 0.70001 0.71617 0.05900
H 	H 	0.48553 0.75203 0.59252 0.04100
H 	H 	0.46659 0.77757 0.71978 0.05000
N 	N 	0.36475 0.28457 0.37337 -0.14300
H 	H 	0.38212 0.29987 0.29771 0.08700
C 	C 	0.43202 0.24748 0.37082 -0.08500
H 	H 	0.49186 0.28142 0.31693 0.04800
H 	H 	0.44379 0.18728 0.33830 0.04900
H 	H 	0.41546 0.24639 0.45361 0.04500
N 	N 	0.45719 0.65385 0.33499 -0.14400
H 	H 	0.46278 0.63463 0.26754 0.07500
C 	C 	0.53080 0.69785 0.30716 -0.08400
H 	H 	0.58990 0.66307 0.25040 0.03800
H 	H 	0.52570 0.71045 0.38157 0.04200
H 	H 	0.53610 0.75355 0.26640 0.03800
N 	N 	0.63478 0.28397 0.62610 -0.14400
H 	H 	0.61697 0.29912 0.70202 0.09600
C 	C 	0.56800 0.24669 0.62783 -0.08300
H 	H 	0.50790 0.28032 0.68173 0.04900
H 	H 	0.55655 0.18637 0.65987 0.04900
H 	H 	0.58491 0.24591 0.54486 0.04400
N 	N 	0.03697 0.16620 0.65295 -0.16800
H 	H 	0.02527 0.14186 0.72203 0.08800
C 	C 	0.97000 0.21882 0.67666 -0.03500
H 	H 	0.90760 0.18768 0.72551 0.06900
H 	H 	0.98255 0.23950 0.59987 0.06200
H 	H 	0.96568 0.26977 0.72441 0.06600
N 	N 	0.86732 0.77817 0.37756 -0.14200
H 	H 	0.88755 0.79333 0.30053 0.09600
C 	C 	0.93125 0.73864 0.37977 -0.09100
H 	H 	0.99257 0.77068 0.32723 0.07800
H 	H 	0.94163 0.67825 0.34834 0.06200
H 	H 	0.91212 0.73766 0.46385 0.05300
N 	N 	0.96335 0.16683 0.34780 -0.10700
H 	H 	0.97542 0.14227 0.27864 0.10800
C 	C 	0.02989 0.21986 0.32433 -0.13700
H 	H 	0.09246 0.18893 0.27593 0.04600
H 	H 	0.01689 0.24091 0.40123 0.03200
H 	H 	0.03417 0.27055 0.27620 0.02800
N 	N 	0.14533 0.79549 0.63659 -0.15000
H 	H 	0.13519 0.81048 0.70834 0.08600
C 	C 	0.07103 0.76396 0.65065 -0.07800
H 	H 	0.01353 0.79693 0.71571 0.02600
H 	H 	0.06115 0.70181 0.67542 0.03500
H 	H 	0.07822 0.76974 0.57374 0.02400
N 	N 	0.17480 0.73865 0.20688 -0.12100
H 	H 	0.16370 0.68232 0.23582 0.07700
C 	C 	0.15042 0.79844 0.28789 -0.07900
H 	H 	0.20600 0.81215 0.28703 0.05400
H 	H 	0.09730 0.77674 0.37051 0.01500
H 	H 	0.12888 0.85318 0.27258 0.02400
N 	N 	0.65450 0.36673 0.03472 -0.17600
H 	H 	0.69158 0.38971 0.95694 0.16000
C 	C 	0.59379 0.42224 0.11665 -0.07500
H 	H 	0.55876 0.45097 0.08978 0.04100
H 	H 	0.62771 0.46772 0.12870 0.02800
H 	H 	0.54625 0.39207 0.19522 0.05000
N 	N 	0.82818 0.74107 0.79066 -0.12400
H 	H 	0.85012 0.68722 0.75409 0.09500
C 	C 	0.85429 0.80310 0.71196 -0.07900
H 	H 	0.84074 0.78554 0.65466 0.05300
H 	H 	0.92392 0.81436 0.66416 0.05200
H 	H 	0.81853 0.85792 0.75245 0.05200
N 	N 	0.34589 0.36687 0.96448 -0.05400
H 	H 	0.30894 0.39045 0.04190 0.03400
C 	C 	0.40734 0.42154 0.88177 -0.08900
H 	H 	0.44238 0.45033 0.90853 0.09200
H 	H 	0.37406 0.46706 0.86862 0.06600
H 	H 	0.45478 0.39063 0.80382 0.06100
N 	N 	0.67408 0.23931 0.20705 -0.11900
H 	H 	0.66292 0.18302 0.23614 0.09300
C 	C 	0.64877 0.29909 0.28838 -0.08100
H 	H 	0.70248 0.31028 0.29225 0.06300
H 	H 	0.59259 0.27868 0.36986 0.03800
H 	H 	0.63135 0.35499 0.26978 0.04400
N 	N 	0.15249 0.86724 0.03846 -0.18500
H 	H 	0.18831 0.89573 0.96440 0.15200
C 	C 	0.08492 0.91506 0.12684 -0.06200
H 	H 	0.04951 0.94445 0.10094 0.00400
H 	H 	0.11242 0.96035 0.14903 -0.00200
H 	H 	0.03882 0.87840 0.19926 0.02000
N 	N 	0.32609 0.23938 0.79260 -0.12700
H 	H 	0.33739 0.18311 0.76344 0.09800
C 	C 	0.35102 0.29922 0.71145 -0.08100
H 	H 	0.29702 0.31057 0.70819 0.06600
H 	H 	0.40693 0.27878 0.62976 0.03800
H 	H 	0.36872 0.35504 0.72977 0.04600
N 	N 	0.84627 0.86825 0.96305 -0.06100
H 	H 	0.81046 0.88492 0.04386 0.04300
C 	C 	0.89402 0.93267 0.88932 -0.09000
H 	H 	0.93381 0.96019 0.90976 0.08600
H 	H 	0.84958 0.97734 0.89693 0.05600
H 	H 	0.93711 0.91185 0.80358 0.06500
