data_crystal

_cell_length_a 18.98882
_cell_length_b 10.93799
_cell_length_c 18.89502
_cell_angle_alpha 89.80053
_cell_angle_beta  90.25570
_cell_angle_gamma 90.13395

_symmetry_space_group_name_	'P 1'
_symmetry_space_group_name_H-M	'P 1'

loop_
_symmetry_equiv_pos_as_xyz
  x,y,z

loop_
_atom_site_label
_atom_site_type_symbol
_atom_site_fract_x
_atom_site_fract_y
_atom_site_fract_z
_atom_site_charge
C 	C 	0.72825 0.95252 0.85183 0.45700
C 	C 	0.25166 0.39894 0.91827 -0.11900
C 	C 	0.65200 0.72008 0.05213 0.11300
C 	C 	0.51349 0.40809 0.55735 0.11900
C 	C 	0.56731 0.35223 0.41242 0.11600
C 	C 	0.01349 0.90809 0.55735 0.12200
C 	C 	0.06731 0.85223 0.41242 0.11900
C 	C 	0.45428 0.93639 0.43866 0.12900
C 	C 	0.44752 0.96901 0.58918 0.12200
C 	C 	0.95428 0.43639 0.43866 0.11200
C 	C 	0.94752 0.46901 0.58918 0.09700
C 	C 	0.26257 0.93072 0.07055 -0.12400
C 	C 	0.75166 0.89894 0.91827 -0.14000
C 	C 	0.82179 0.42092 0.02697 0.01200
C 	C 	0.20753 0.31475 0.95058 0.00800
C 	C 	0.32179 0.92092 0.02697 0.01800
C 	C 	0.70753 0.81475 0.95058 0.02400
C 	C 	0.81533 0.41952 0.95391 0.00800
C 	C 	0.21139 0.29328 0.02255 0.00900
C 	C 	0.31533 0.91952 0.95391 0.01000
C 	C 	0.27442 0.95840 0.14501 0.44400
C 	C 	0.71139 0.79328 0.02255 0.00100
C 	C 	0.74740 0.42040 0.92316 -0.10000
C 	C 	0.26737 0.34781 0.06298 -0.07600
C 	C 	0.24740 0.92041 0.92316 -0.09200
C 	C 	0.76737 0.84781 0.06298 -0.05900
C 	C 	0.51583 0.28111 0.52887 0.02700
C 	C 	0.52887 0.26193 0.45736 0.02300
C 	C 	0.01583 0.78111 0.52887 0.04000
C 	C 	0.02887 0.76193 0.45736 0.01800
C 	C 	0.50107 0.15645 0.42619 -0.09400
C 	C 	0.22825 0.45252 0.85183 0.42500
C 	C 	0.49964 0.17829 0.57266 -0.09900
C 	C 	0.00107 0.65644 0.42619 -0.07600
C 	C 	0.99964 0.67829 0.57266 -0.11900
C 	C 	0.47835 0.05517 0.46899 0.00000
C 	C 	0.47619 0.06831 0.54291 0.00300
C 	C 	0.97835 0.55517 0.46899 0.00300
C 	C 	0.97619 0.56831 0.54291 0.02800
C 	C 	0.77911 0.29925 0.52553 0.17000
C 	C 	0.18519 0.40626 0.45397 0.16600
C 	C 	0.27911 0.79925 0.52553 0.18500
C 	C 	0.77442 0.45840 0.14501 0.42000
C 	C 	0.68519 0.90626 0.45397 0.16500
C 	C 	0.77492 0.31058 0.45214 0.10200
C 	C 	0.17621 0.41366 0.52700 0.10900
C 	C 	0.27492 0.81058 0.45214 0.08700
C 	C 	0.67620 0.91366 0.52700 0.11500
C 	C 	0.53126 0.17736 0.85168 0.45000
C 	C 	0.47063 0.17814 0.14957 0.45300
C 	C 	0.03126 0.67736 0.85168 0.45000
C 	C 	0.97063 0.67814 0.14957 0.45000
C 	C 	0.75068 0.42049 0.42322 -0.12300
C 	C 	0.69585 0.43911 0.04063 0.01900
C 	C 	0.23597 0.43073 0.57127 -0.09700
C 	C 	0.25068 0.92049 0.42322 -0.08800
C 	C 	0.73597 0.93073 0.57127 -0.10300
C 	C 	0.72154 0.51096 0.46693 -0.06100
C 	C 	0.30304 0.43635 0.54262 -0.06900
C 	C 	0.22154 0.01095 0.46693 -0.12500
C 	C 	0.80304 0.93635 0.54262 -0.06000
C 	C 	0.71985 0.49657 0.53992 0.22800
C 	C 	0.31214 0.43106 0.46998 0.22600
C 	C 	0.21985 0.99657 0.53992 0.28500
C 	C 	0.30821 0.44895 0.95541 0.00700
C 	C 	0.81214 0.93107 0.46998 0.22300
C 	C 	0.74777 0.38872 0.56976 -0.22500
C 	C 	0.25278 0.41048 0.42527 -0.23100
C 	C 	0.24777 0.88872 0.56976 -0.24500
C 	C 	0.75278 0.91048 0.42527 -0.22400
C 	C 	0.73807 0.36578 0.85257 0.41800
C 	C 	0.27418 0.31814 0.13920 0.32300
C 	C 	0.23807 0.86578 0.85257 0.41700
C 	C 	0.77418 0.81814 0.13920 0.31800
C 	C 	0.72551 0.95895 0.64566 0.45400
C 	C 	0.19585 0.93911 0.04063 0.02800
C 	C 	0.27166 0.95577 0.35232 0.43700
C 	C 	0.22551 0.45895 0.64566 0.42900
C 	C 	0.77166 0.45577 0.35232 0.42600
C 	C 	0.52892 0.17811 0.64460 0.42300
C 	C 	0.47076 0.17386 0.35540 0.41400
C 	C 	0.02892 0.67811 0.64460 0.43700
C 	C 	0.97076 0.67386 0.35540 0.40400
C 	C 	0.73878 0.35814 0.64461 0.47500
C 	C 	0.26148 0.36221 0.35398 0.48300
C 	C 	0.23878 0.85814 0.64461 0.48400
C 	C 	0.80820 0.94895 0.95541 0.05400
C 	C 	0.76148 0.86221 0.35398 0.48300
C 	C 	0.50251 0.16685 0.92325 -0.18100
C 	C 	0.50546 0.17233 0.08076 -0.20400
C 	C 	0.00251 0.66685 0.92325 -0.17300
C 	C 	0.00546 0.67234 0.08076 -0.20400
C 	C 	0.50513 0.07046 0.04166 0.02600
C 	C 	0.52232 0.07376 0.96581 -0.00400
C 	C 	0.00513 0.57046 0.04166 0.05500
C 	C 	0.02232 0.57376 0.96581 0.01200
C 	C 	0.68756 0.44074 0.96710 0.00400
C 	C 	0.76257 0.43072 0.07055 -0.12000
C 	C 	0.31694 0.42513 0.02752 0.01500
C 	C 	0.18756 0.94074 0.96710 -0.00200
C 	C 	0.81694 0.92513 0.02752 -0.01600
C 	C 	0.61667 0.47021 0.93849 0.11000
C 	C 	0.37391 0.49428 0.06361 0.09800
C 	C 	0.11667 0.97021 0.93849 0.13700
C 	C 	0.87391 0.99428 0.06361 0.16200
C 	C 	0.88115 0.41895 0.91190 0.10300
C 	C 	0.15200 0.22008 0.05213 0.10600
C 	C 	0.38115 0.91895 0.91190 0.10500
Cr	Cr	0.76927 0.16373 0.75071 1.54200
Cr	Cr	0.38584 0.32250 0.25229 1.53900
Cr	Cr	0.11416 0.82250 0.74771 1.54300
Cr	Cr	0.88584 0.82250 0.25229 1.54000
Cr	Cr	0.23073 0.16373 0.24929 1.53800
Cr	Cr	0.26927 0.66373 0.75071 1.54200
Cr	Cr	0.73073 0.66373 0.24929 1.53800
Cr	Cr	0.61262 0.00979 0.74878 1.53600
Cr	Cr	0.38738 0.00979 0.25122 1.53700
Cr	Cr	0.11262 0.50979 0.74878 1.54300
Cr	Cr	0.88738 0.50979 0.25122 1.54300
Cr	Cr	0.61416 0.32250 0.74771 1.54200
H 	H 	0.49146 0.98294 0.06512 0.05100
H 	H 	0.47255 0.24307 0.94410 0.10400
H 	H 	0.02335 0.75802 0.05773 0.12000
H 	H 	0.97255 0.74307 0.94410 0.10000
H 	H 	0.65065 0.45054 0.07478 0.04700
H 	H 	0.34238 0.51481 0.92956 0.05100
H 	H 	0.15065 0.95053 0.07478 0.05000
H 	H 	0.84238 0.01481 0.92956 0.02600
H 	H 	0.87411 0.42038 0.04986 0.04100
H 	H 	0.16530 0.27258 0.92036 0.05100
H 	H 	0.37411 0.92038 0.04986 0.04400
H 	H 	0.55129 0.99658 0.94472 0.06300
H 	H 	0.66530 0.77258 0.92036 0.04900
H 	H 	0.77547 0.22185 0.36303 0.15000
H 	H 	0.07552 0.37372 0.52228 0.15500
H 	H 	0.27547 0.72185 0.36303 0.15100
H 	H 	0.57552 0.87372 0.52228 0.15600
H 	H 	0.70978 0.58300 0.62937 0.16200
H 	H 	0.37791 0.50353 0.40548 0.16900
H 	H 	0.20978 0.08300 0.62937 0.15900
H 	H 	0.87791 0.00354 0.40547 0.14800
H 	H 	0.61093 0.51702 0.88814 0.01600
H 	H 	0.99146 0.48294 0.06512 0.02800
H 	H 	0.36459 0.54070 0.11321 0.02500
H 	H 	0.11093 0.01702 0.88814 -0.00500
H 	H 	0.86459 0.04070 0.11321 -0.00500
H 	H 	0.92887 0.38045 0.93446 0.01500
H 	H 	0.15921 0.15808 0.09578 0.01500
H 	H 	0.42887 0.88045 0.93446 0.02000
H 	H 	0.65921 0.65808 0.09578 0.01800
H 	H 	0.47121 0.43340 0.59273 0.02200
H 	H 	0.60779 0.31967 0.37683 0.01800
H 	H 	0.97121 0.93340 0.59273 0.02100
H 	H 	0.05129 0.49658 0.94472 0.04700
H 	H 	0.10779 0.81967 0.37683 0.02200
H 	H 	0.40967 0.88915 0.46130 0.02100
H 	H 	0.45216 0.87372 0.57430 0.01900
H 	H 	0.90967 0.38915 0.46130 0.02200
H 	H 	0.95216 0.37372 0.57430 0.02000
H 	H 	0.84995 0.17160 0.52186 0.15900
H 	H 	0.10911 0.31157 0.41831 0.16000
H 	H 	0.34995 0.67160 0.52186 0.16500
H 	H 	0.60911 0.81157 0.41831 0.16000
H 	H 	0.70410 0.59742 0.44487 0.07900
H 	H 	0.34823 0.45115 0.57666 0.07100
H 	H 	0.20411 0.09742 0.44487 0.09100
H 	H 	0.84823 0.95115 0.57666 0.07300
H 	H 	0.52335 0.25802 0.05773 0.11600
O 	O 	0.78432 0.29043 0.83051 -0.46300
O 	O 	0.45608 0.28218 0.33321 -0.45900
O 	O 	0.04392 0.78218 0.66679 -0.47900
O 	O 	0.95608 0.78218 0.33321 -0.45700
O 	O 	0.67904 0.37416 0.67443 -0.53000
O 	O 	0.32096 0.37416 0.32557 -0.53800
O 	O 	0.17904 0.87416 0.67443 -0.52900
O 	O 	0.82096 0.87416 0.32557 -0.53400
O 	O 	0.66535 0.16534 0.74907 -0.74800
O 	O 	0.33465 0.16534 0.25093 -0.75500
O 	O 	0.16535 0.66534 0.74907 -0.74600
O 	O 	0.21568 0.29043 0.16949 -0.44100
O 	O 	0.83465 0.66534 0.25093 -0.75300
O 	O 	0.76264 0.04096 0.82520 -0.54900
O 	O 	0.23736 0.04096 0.17480 -0.54900
O 	O 	0.26264 0.54096 0.82520 -0.52700
O 	O 	0.73736 0.54096 0.17480 -0.53000
O 	O 	0.66740 0.92397 0.82995 -0.48200
O 	O 	0.33260 0.92397 0.17005 -0.48000
O 	O 	0.16740 0.42397 0.82995 -0.48300
O 	O 	0.83260 0.42397 0.17005 -0.48400
O 	O 	0.55396 0.08134 0.82178 -0.53200
O 	O 	0.28432 0.79043 0.83051 -0.46100
O 	O 	0.44604 0.08134 0.17822 -0.54200
O 	O 	0.05396 0.58134 0.82178 -0.52300
O 	O 	0.94604 0.58134 0.17822 -0.53600
O 	O 	0.54318 0.28324 0.82674 -0.48500
O 	O 	0.45682 0.28324 0.17326 -0.49100
O 	O 	0.04318 0.78324 0.82674 -0.47900
O 	O 	0.95682 0.78324 0.17326 -0.48900
O 	O 	0.67836 0.37514 0.82271 -0.52300
O 	O 	0.32164 0.37514 0.17729 -0.48300
O 	O 	0.17836 0.87514 0.82271 -0.51800
O 	O 	0.71568 0.79043 0.16949 -0.43700
O 	O 	0.82164 0.87514 0.17729 -0.47700
O 	O 	0.78505 0.28938 0.67056 -0.47000
O 	O 	0.21495 0.28938 0.32944 -0.48000
O 	O 	0.28505 0.78938 0.67056 -0.47000
O 	O 	0.71495 0.78938 0.32944 -0.47800
O 	O 	0.76332 0.03999 0.67693 -0.53300
O 	O 	0.23668 0.03999 0.32307 -0.54400
O 	O 	0.26332 0.53999 0.67693 -0.51300
O 	O 	0.73668 0.53999 0.32307 -0.52800
O 	O 	0.66813 0.92292 0.67000 -0.46300
O 	O 	0.55464 0.08037 0.67350 -0.50300
O 	O 	0.33187 0.92292 0.33000 -0.46900
O 	O 	0.16813 0.42292 0.67000 -0.46500
O 	O 	0.83187 0.42292 0.33000 -0.47600
O 	O 	0.79744 0.21469 0.41053 -0.27600
O 	O 	0.10950 0.40940 0.55607 -0.25300
O 	O 	0.29744 0.71469 0.41053 -0.26800
O 	O 	0.60950 0.90940 0.55607 -0.25000
O 	O 	0.69430 0.59249 0.57959 -0.28800
O 	O 	0.37974 0.44408 0.44510 -0.29300
O 	O 	0.19430 0.09248 0.57959 -0.31300
O 	O 	0.44536 0.08037 0.32650 -0.51300
O 	O 	0.87974 0.94408 0.44510 -0.27500
O 	O 	0.56366 0.44623 0.97209 -0.18000
O 	O 	0.43160 0.50522 0.03606 -0.17200
O 	O 	0.06366 0.94623 0.97209 -0.17700
O 	O 	0.93160 0.00522 0.03606 -0.20900
O 	O 	0.88344 0.46538 0.85307 -0.18300
O 	O 	0.09280 0.22826 0.02694 -0.18600
O 	O 	0.38344 0.96538 0.85307 -0.17400
O 	O 	0.59280 0.72826 0.02694 -0.18400
O 	O 	0.56026 0.48197 0.54603 -0.16700
O 	O 	0.05464 0.58037 0.67350 -0.49700
O 	O 	0.55051 0.45982 0.41011 -0.17400
O 	O 	0.06026 0.98197 0.54603 -0.15900
O 	O 	0.05051 0.95983 0.41011 -0.16500
O 	O 	0.48551 0.88772 0.39007 -0.19200
O 	O 	0.41696 0.99337 0.64408 -0.17600
O 	O 	0.98551 0.38771 0.39007 -0.19900
O 	O 	0.91696 0.49337 0.64408 -0.18100
O 	O 	0.81322 0.20007 0.55502 -0.27500
O 	O 	0.12787 0.39511 0.40985 -0.26500
O 	O 	0.31322 0.70007 0.55502 -0.27400
O 	O 	0.94536 0.58037 0.32650 -0.50400
O 	O 	0.62787 0.89511 0.40985 -0.26100
O 	O 	0.54392 0.28218 0.66679 -0.48000
