data_crystal

_cell_length_a 10.92519
_cell_length_b 10.90398
_cell_length_c 18.83667
_cell_angle_alpha 90.07167
_cell_angle_beta  89.69206
_cell_angle_gamma 60.18447

_symmetry_space_group_name_	'P 1'
_symmetry_space_group_name_H-M	'P 1'

loop_
_symmetry_equiv_pos_as_xyz
  x,y,z

loop_
_atom_site_label
_atom_site_type_symbol
_atom_site_fract_x
_atom_site_fract_y
_atom_site_fract_z
_atom_site_charge
O 	O 	0.50743 0.25557 0.58142 -0.44000
O 	O 	0.28019 0.52739 0.57891 -0.48500
C 	C 	0.23335 0.64785 0.60884 0.44800
O 	O 	0.26031 0.73974 0.58458 -0.45600
O 	O 	0.53225 0.69515 0.57383 -0.52400
C 	C 	0.65062 0.61640 0.60367 0.48900
O 	O 	0.74493 0.50343 0.57638 -0.46800
O 	O 	0.69925 0.27639 0.57195 -0.50500
C 	C 	0.62619 0.23136 0.60406 0.42700
O 	O 	0.49902 0.25640 0.41985 -0.43600
O 	O 	0.27240 0.52816 0.42914 -0.51800
C 	C 	0.22024 0.64902 0.40207 0.49600
O 	O 	0.25191 0.74057 0.42302 -0.45600
O 	O 	0.52446 0.69592 0.42406 -0.51800
C 	C 	0.64168 0.62419 0.39259 0.41500
O 	O 	0.73653 0.50426 0.41481 -0.48500
O 	O 	0.69146 0.27716 0.42218 -0.51600
C 	C 	0.61936 0.22650 0.39572 0.45500
Cr	Cr	0.39293 0.39790 0.50223 1.55100
Cr	Cr	0.39824 0.70860 0.50126 1.54100
Cr	Cr	0.70880 0.39347 0.49646 1.54000
O 	O 	0.49999 0.49999 0.49998 -0.74500
C 	C 	0.53219 0.73249 0.79821 0.25900
C 	C 	0.51919 0.70472 0.71827 0.23200
H 	H 	0.44412 0.80557 0.69187 0.02200
H 	H 	0.72643 0.84597 0.78753 0.04400
H 	H 	0.64952 0.84356 0.67452 -0.03000
C 	C 	0.76197 0.73572 0.77018 -0.13500
C 	C 	0.76629 0.50609 0.79731 -0.06200
C 	C 	0.69272 0.66646 0.81594 -0.09500
H 	H 	0.87789 0.44878 0.81511 0.05800
H 	H 	0.71362 0.45523 0.82570 0.08800
C 	C 	0.66686 0.63576 0.68028 -0.21400
C 	C 	0.72859 0.73465 0.69112 0.32000
C 	C 	0.76076 0.48701 0.71701 0.10500
H 	H 	0.70826 0.42311 0.70857 0.06000
H 	H 	0.87814 0.67674 0.77782 0.05700
C 	C 	0.78957 0.13159 0.70774 0.02000
H 	H 	0.88141 0.09270 0.67358 0.05200
C 	C 	0.80628 0.11636 0.78133 0.01000
H 	H 	0.91112 0.06213 0.80311 0.03800
C 	C 	0.68764 0.16225 0.82578 -0.08600
C 	C 	0.55270 0.23178 0.79665 0.03000
H 	H 	0.45939 0.26785 0.82969 0.07400
C 	C 	0.53666 0.24350 0.72417 0.03300
H 	H 	0.43134 0.29209 0.70346 0.07100
C 	C 	0.65398 0.19384 0.67888 -0.08300
C 	C 	0.19091 0.55474 0.72064 0.05200
H 	H 	0.21064 0.45930 0.69366 0.09400
C 	C 	0.17849 0.56214 0.79433 0.02900
H 	H 	0.18040 0.47514 0.82298 0.08300
C 	C 	0.16065 0.68277 0.83017 -0.06000
C 	C 	0.15480 0.79508 0.79127 0.03500
H 	H 	0.14185 0.88944 0.81716 0.06600
C 	C 	0.15923 0.79063 0.71811 0.04000
H 	H 	0.15415 0.87985 0.69020 0.05800
C 	C 	0.18245 0.66826 0.68208 -0.05400
C 	C 	0.78386 0.61493 0.29005 -0.02300
H 	H 	0.87883 0.56429 0.32173 0.01700
C 	C 	0.79485 0.62448 0.21777 0.01500
H 	H 	0.89962 0.58505 0.19568 -0.00400
C 	C 	0.67407 0.68273 0.17439 -0.16800
C 	C 	0.53888 0.73989 0.20511 0.11100
C 	C 	0.52921 0.73063 0.27873 -0.04000
H 	H 	0.42644 0.76628 0.30262 0.07500
C 	C 	0.65172 0.66459 0.32062 -0.09200
C 	C 	0.58746 0.10054 0.29453 0.14800
C 	C 	0.58503 0.09170 0.22128 -0.02800
H 	H 	0.53400 0.03802 0.19781 0.11800
C 	C 	0.65551 0.14280 0.17868 -0.06400
C 	C 	0.73190 0.20001 0.20913 -0.00300
H 	H 	0.79108 0.23461 0.17660 0.04500
C 	C 	0.73272 0.21218 0.28195 0.04400
H 	H 	0.78639 0.26425 0.30413 0.04500
C 	C 	0.65636 0.16775 0.32487 -0.12300
C 	C 	0.07670 0.79798 0.30469 0.32700
C 	C 	0.05525 0.80998 0.23273 0.12200
H 	H 	0.99276 0.91524 0.21111 -0.11200
C 	C 	0.11598 0.68891 0.18884 -0.14100
C 	C 	0.18687 0.55303 0.21818 0.12600
C 	C 	0.20432 0.54198 0.29119 0.02400
H 	H 	0.26722 0.43748 0.31362 0.07600
C 	C 	0.15739 0.66423 0.33349 -0.18800
O 	O 	0.08949 0.82561 0.93061 -0.41100
O 	O 	0.81837 0.05454 0.92988 -0.46800
C 	C 	0.70181 0.10366 0.89665 0.40200
O 	O 	0.60587 0.07731 0.91553 -0.38600
O 	O 	0.64644 0.80670 0.91757 -0.51600
C 	C 	0.71879 0.68417 0.89072 0.44400
O 	O 	0.83720 0.59329 0.91525 -0.50400
O 	O 	0.06533 0.63537 0.93159 -0.42300
C 	C 	0.11428 0.70891 0.90414 0.41200
O 	O 	0.06830 0.82879 0.09186 -0.42200
O 	O 	0.79873 0.05748 0.07937 -0.48100
C 	C 	0.67543 0.10418 0.10486 0.40500
O 	O 	0.58468 0.08048 0.07679 -0.40900
O 	O 	0.62679 0.80964 0.06705 -0.55500
C 	C 	0.69886 0.69229 0.09929 0.45800
O 	O 	0.81601 0.59646 0.07650 -0.52500
O 	O 	0.04568 0.63831 0.08107 -0.43100
C 	C 	0.08683 0.71266 0.11435 0.45600
Cr	Cr	0.93762 0.93854 0.00764 1.42700
Cr	Cr	0.62515 0.93745 0.99452 1.51300
Cr	Cr	0.93799 0.62508 0.00119 1.47600
O 	O 	0.83359 0.83369 0.00112 -0.85700
N 	N 	0.45040 0.88516 0.81405 -0.02600
O 	O 	0.46521 0.97663 0.77607 -0.16600
O 	O 	0.35525 0.93143 0.86419 -0.10300
N 	N 	0.90479 0.40572 0.68777 -0.00600
O 	O 	0.99865 0.44209 0.70137 -0.15200
O 	O 	0.94523 0.28549 0.65602 -0.14300
F 	F 	0.84796 0.69454 0.64975 -0.48500
F 	F 	0.47734 0.66476 0.83917 -0.39700
N 	N 	0.41284 0.80001 0.16302 -0.03000
O 	O 	0.41251 0.74672 0.10122 -0.10500
O 	O 	0.29386 0.89781 0.18975 -0.11200
N 	N 	0.51931 0.04236 0.33717 0.04000
O 	O 	0.40375 0.04801 0.31546 -0.02000
O 	O 	0.57741 0.97526 0.39553 -0.22900
F 	F 	0.02535 0.91653 0.34539 -0.41600
F 	F 	0.46428 0.61486 0.71183 -0.41700
N 	N 	0.24840 0.42716 0.17510 -0.02200
O 	O 	0.31509 0.42097 0.11656 -0.09200
O 	O 	0.25322 0.31271 0.19865 -0.05200
