data_crystal

_cell_length_a 6.95826
_cell_length_b 13.53773
_cell_length_c 20.25677
_cell_angle_alpha 103.03025
_cell_angle_beta  89.70915
_cell_angle_gamma 90.81597

_symmetry_space_group_name_	'P 1'
_symmetry_space_group_name_H-M	'P 1'

loop_
_symmetry_equiv_pos_as_xyz
  x,y,z

loop_
_atom_site_label
_atom_site_type_symbol
_atom_site_fract_x
_atom_site_fract_y
_atom_site_fract_z
_atom_site_charge
O 	O 	0.50677 0.59970 0.44955 -0.47200
O 	O 	0.17998 0.59574 0.58796 -0.49600
O 	O 	0.00458 0.40030 0.55045 -0.49500
C 	C 	0.34825 0.61772 0.61507 0.38200
O 	O 	0.17738 0.61170 0.45238 -0.48400
O 	O 	0.00197 0.41637 0.41390 -0.49200
C 	C 	0.34704 0.63780 0.43512 0.38600
O 	O 	0.50939 0.58363 0.58610 -0.48500
O 	O 	0.33753 0.43589 0.48753 -0.64200
V 	V 	0.06466 0.51189 0.50231 1.80600
O 	O 	0.67195 0.40426 0.41204 -0.49400
C 	C 	0.84057 0.38276 0.38478 0.40100
O 	O 	0.67454 0.38830 0.54762 -0.49000
C 	C 	0.84224 0.36145 0.56417 0.40000
V 	V 	0.56403 0.48811 0.49769 1.80900
O 	O 	0.84103 0.56411 0.51247 -0.63200
C 	C 	0.83495 0.10838 0.61053 -0.07200
H 	H 	0.82703 0.15826 0.51730 0.03000
H 	H 	0.83474 0.98262 0.69364 0.04200
H 	H 	0.82659 0.02905 0.58478 0.05400
C 	C 	0.84712 0.28412 0.60398 -0.10900
C 	C 	0.87496 0.31797 0.93073 0.03400
C 	C 	0.87538 0.39450 0.89520 -0.04900
C 	C 	0.86789 0.37086 0.82464 -0.01900
C 	C 	0.85968 0.26871 0.78748 -0.01000
C 	C 	0.85762 0.19058 0.82438 0.06800
C 	C 	0.85357 0.24147 0.71511 -0.01300
C 	C 	0.84362 0.13717 0.68154 0.03900
C 	C 	0.84182 0.06223 0.71890 -0.04000
C 	C 	0.84909 0.08832 0.78911 -0.05100
C 	C 	0.85654 0.31402 0.67461 0.01700
C 	C 	0.83560 0.18155 0.57202 0.03800
C 	C 	0.86555 0.21639 0.89609 -0.12100
H 	H 	0.86426 0.39439 0.69607 0.03300
H 	H 	0.88219 0.33798 0.98558 0.03600
H 	H 	0.86881 0.43452 0.80097 0.03800
H 	H 	0.88222 0.47302 0.92256 0.04900
H 	H 	0.84767 0.02724 0.81560 0.05300
C 	C 	0.71569 0.25513 0.20265 0.05100
C 	C 	0.86763 0.18810 0.18276 -0.09500
C 	C 	0.02059 0.19285 0.22881 -0.01100
H 	H 	0.14107 0.14269 0.21571 0.03900
C 	C 	0.01288 0.25689 0.29413 -0.00700
H 	H 	0.12834 0.25492 0.32929 0.04400
C 	C 	0.85132 0.31743 0.31550 -0.09100
C 	C 	0.70751 0.31777 0.26747 0.06000
C 	C 	0.49667 0.30121 0.27277 -0.09300
C 	C 	0.50511 0.23377 0.20190 -0.08100
H 	H 	0.41534 0.37201 0.27568 0.07400
H 	H 	0.46072 0.25899 0.31242 0.06200
H 	H 	0.42896 0.26575 0.16351 0.06300
H 	H 	0.47264 0.15275 0.20039 0.05700
C 	C 	0.49870 0.67860 0.73005 0.04500
C 	C 	0.35154 0.68374 0.68422 -0.10800
C 	C 	0.19690 0.74862 0.70812 -0.00300
H 	H 	0.07890 0.75450 0.67479 0.03700
C 	C 	0.19861 0.81153 0.77380 0.00000
H 	H 	0.08287 0.86433 0.78894 0.03400
C 	C 	0.35520 0.81159 0.81749 -0.11000
C 	C 	0.50099 0.74136 0.79488 0.04600
C 	C 	0.71284 0.75807 0.79230 -0.08500
C 	C 	0.71015 0.68948 0.72174 -0.08500
H 	H 	0.79079 0.72523 0.82990 0.06200
H 	H 	0.75037 0.83819 0.79255 0.05900
H 	H 	0.78600 0.61683 0.71857 0.05800
H 	H 	0.74629 0.72970 0.68106 0.06400
C 	C 	0.40319 0.89072 0.38985 -0.06800
H 	H 	0.40664 0.83896 0.48249 0.03000
H 	H 	0.44851 0.01430 0.30599 0.04000
H 	H 	0.43515 0.96848 0.41546 0.05200
C 	C 	0.35823 0.71578 0.39567 -0.09800
C 	C 	0.29172 0.68681 0.07157 0.02400
C 	C 	0.22162 0.61847 0.10797 -0.02700
C 	C 	0.20899 0.64518 0.17877 -0.04200
C 	C 	0.29879 0.73753 0.21465 0.01200
C 	C 	0.35276 0.81078 0.17673 0.06000
C 	C 	0.33259 0.76225 0.28615 -0.00800
C 	C 	0.37982 0.86384 0.31920 0.04000
C 	C 	0.41056 0.93685 0.28133 -0.03800
C 	C 	0.40457 0.90992 0.21111 -0.04700
C 	C 	0.33658 0.68830 0.32525 0.02500
C 	C 	0.38908 0.81720 0.42800 0.03500
C 	C 	0.34715 0.78460 0.10503 -0.10800
H 	H 	0.32951 0.60869 0.30157 0.05500
H 	H 	0.28634 0.66627 0.01670 0.03400
H 	H 	0.16077 0.54720 0.08013 0.04500
H 	H 	0.44000 0.96793 0.18387 0.05300
O 	O 	0.20345 0.91632 0.91391 -0.49100
O 	O 	0.53552 0.88830 0.04762 -0.48100
O 	O 	0.71086 0.08365 0.08610 -0.48800
C 	C 	0.36532 0.86183 0.06464 0.38400
O 	O 	0.53286 0.90425 0.91204 -0.49500
O 	O 	0.70819 0.09971 0.94955 -0.48200
C 	C 	0.36440 0.88270 0.88478 0.38200
O 	O 	0.20612 0.90026 0.05046 -0.47800
O 	O 	0.37528 0.06408 0.01247 -0.64400
V 	V 	0.64818 0.98811 0.99769 1.80600
O 	O 	0.03822 0.11174 0.95237 -0.49900
C 	C 	0.87052 0.13853 0.93582 0.40200
O 	O 	0.04088 0.09579 0.08794 -0.51000
C 	C 	0.87267 0.11726 0.11525 0.39700
V 	V 	0.14880 0.01195 0.00230 1.80600
O 	O 	0.87182 0.93592 0.98753 -0.63900
S 	S 	0.03448 0.57526 0.21496 0.32300
O 	O 	0.95240 0.63872 0.27918 -0.17400
O 	O 	0.87231 0.54266 0.16571 -0.19000
O 	O 	0.13350 0.47077 0.23130 -0.28300
H 	H 	0.16582 0.42795 0.18629 0.15000
