data_crystal

_cell_length_a 6.94576
_cell_length_b 17.66520
_cell_length_c 19.43764
_cell_angle_alpha 108.43229
_cell_angle_beta  89.71463
_cell_angle_gamma 90.88779

_symmetry_space_group_name_	'P 1'
_symmetry_space_group_name_H-M	'P 1'

loop_
_symmetry_equiv_pos_as_xyz
  x,y,z

loop_
_atom_site_label
_atom_site_type_symbol
_atom_site_fract_x
_atom_site_fract_y
_atom_site_fract_z
_atom_site_charge
O 	O 	0.49433 0.41571 0.41372 -0.48700
O 	O 	0.81936 0.43007 0.56021 -0.50400
O 	O 	0.99432 0.58429 0.58628 -0.49700
C 	C 	0.64956 0.41637 0.58263 0.40100
O 	O 	0.82374 0.40629 0.41267 -0.49900
O 	O 	0.99873 0.56034 0.43769 -0.49900
C 	C 	0.65379 0.38437 0.38399 0.38400
O 	O 	0.48992 0.43966 0.56231 -0.49600
O 	O 	0.66233 0.55057 0.50838 -0.64500
V 	V 	0.93537 0.49062 0.49844 1.80600
O 	O 	0.32872 0.56993 0.43979 -0.49600
C 	C 	0.16034 0.58696 0.42005 0.39400
O 	O 	0.32434 0.59371 0.58733 -0.49300
C 	C 	0.15519 0.61461 0.61678 0.39500
V 	V 	0.43594 0.50938 0.50156 1.80900
O 	O 	0.15911 0.44943 0.49162 -0.63900
C 	C 	0.30499 0.72194 0.72113 0.02200
H 	H 	0.44290 0.70512 0.69714 0.04500
C 	C 	0.29254 0.78300 0.78756 -0.01800
H 	H 	0.42246 0.80694 0.81656 0.05600
C 	C 	0.11448 0.81564 0.81477 -0.05900
C 	C 	0.94782 0.78098 0.77460 -0.04000
C 	C 	0.96117 0.70584 0.72072 0.11000
C 	C 	0.14040 0.68115 0.68689 -0.12400
C 	C 	0.28283 0.62329 0.31447 0.02200
C 	C 	0.15138 0.63737 0.37170 -0.11000
C 	C 	0.01616 0.69924 0.38243 0.04700
C 	C 	0.99143 0.73635 0.32751 -0.02600
C 	C 	0.13325 0.72400 0.27185 0.03400
C 	C 	0.28163 0.66814 0.26618 -0.04100
C 	C 	0.83018 0.78489 0.32555 -0.00000
C 	C 	0.82977 0.82891 0.27680 -0.04400
C 	C 	0.97690 0.82163 0.22603 0.00500
C 	C 	0.12681 0.76766 0.22176 0.00000
C 	C 	0.26903 0.75700 0.16712 -0.00700
C 	C 	0.41817 0.70293 0.16421 -0.07000
C 	C 	0.42487 0.65793 0.21196 0.06800
C 	C 	0.97217 0.86679 0.17844 -0.00500
C 	C 	0.11270 0.85828 0.12462 -0.11300
C 	C 	0.25789 0.79996 0.11618 0.08400
H 	H 	0.38871 0.57749 0.30892 0.02900
H 	H 	0.70893 0.86689 0.27621 0.05900
H 	H 	0.85867 0.90982 0.18385 0.04400
H 	H 	0.53249 0.69527 0.12473 0.05100
C 	C 	0.63083 0.22038 0.90102 0.09200
C 	C 	0.62647 0.13606 0.87127 -0.14400
C 	C 	0.63504 0.09920 0.79558 0.09100
C 	C 	0.65918 0.14700 0.74989 -0.02400
C 	C 	0.63915 0.23107 0.77805 0.01300
C 	C 	0.61381 0.26848 0.85390 -0.02900
C 	C 	0.70054 0.11191 0.67587 -0.02900
C 	C 	0.71682 0.15744 0.62980 -0.01800
C 	C 	0.68364 0.23989 0.65466 -0.04200
C 	C 	0.64204 0.27701 0.72943 0.02700
C 	C 	0.60177 0.35938 0.75508 -0.04600
C 	C 	0.59023 0.39818 0.83113 -0.00600
C 	C 	0.58194 0.35262 0.87963 -0.01100
C 	C 	0.69303 0.28564 0.60632 0.11400
C 	C 	0.63756 0.36647 0.63131 -0.16800
C 	C 	0.57001 0.39999 0.70328 0.11000
H 	H 	0.72445 0.04858 0.65243 0.05100
H 	H 	0.75194 0.12610 0.57390 0.04100
C 	C 	0.78183 0.25793 0.29935 0.01300
H 	H 	0.89747 0.26259 0.33786 0.03900
C 	C 	0.77768 0.19279 0.23534 -0.00100
C 	C 	0.62558 0.18437 0.18464 -0.05600
C 	C 	0.48275 0.24274 0.20027 -0.05500
H 	H 	0.36707 0.23741 0.16172 0.06600
C 	C 	0.48763 0.30862 0.26409 0.10800
C 	C 	0.63956 0.31647 0.31489 -0.13000
O 	O 	0.77494 0.06047 0.93780 -0.47800
O 	O 	0.44088 0.09373 0.08735 -0.47800
O 	O 	0.26613 0.93963 0.06228 -0.49100
C 	C 	0.61092 0.11593 0.11594 0.36000
O 	O 	0.44548 0.06996 0.93982 -0.48000
O 	O 	0.27077 0.91569 0.91369 -0.48200
C 	C 	0.61521 0.08601 0.91963 0.39800
O 	O 	0.77030 0.08441 0.08638 -0.47000
O 	O 	0.60260 0.94951 0.99167 -0.64300
V 	V 	0.32947 0.00937 0.00155 1.80500
O 	O 	0.94076 0.90616 0.91256 -0.49700
C 	C 	0.10820 0.88445 0.88355 0.37300
O 	O 	0.93615 0.92993 0.06010 -0.50700
C 	C 	0.10462 0.91192 0.07901 0.39600
V 	V 	0.82893 0.99045 0.99831 1.80900
O 	O 	0.10567 0.05049 0.00832 -0.63600
C 	C 	0.39161 0.77917 0.05099 -0.19800
H 	H 	0.39507 0.71344 0.02514 0.07800
H 	H 	0.34319 0.80217 0.00729 0.08900
H 	H 	0.53918 0.80231 0.06824 0.08500
C 	C 	0.58786 0.60006 0.20421 -0.19300
H 	H 	0.52911 0.53829 0.19093 0.07300
H 	H 	0.68958 0.60153 0.16035 0.07600
H 	H 	0.67121 0.61526 0.25548 0.07300
C 	C 	0.67378 0.25659 0.98158 -0.14400
H 	H 	0.74970 0.21504 0.00417 0.06000
H 	H 	0.77511 0.30804 0.99124 0.08000
H 	H 	0.53846 0.27385 0.01278 0.05200
C 	C 	0.61900 0.00907 0.76307 -0.14500
H 	H 	0.51176 0.99298 0.71840 0.06700
H 	H 	0.76145 0.98454 0.74191 0.06700
H 	H 	0.56771 0.97915 0.80200 0.06700
C 	C 	0.74896 0.24618 0.52735 -0.20900
H 	H 	0.74709 0.28621 0.49364 0.08900
H 	H 	0.89676 0.22229 0.52444 0.08100
H 	H 	0.64589 0.19684 0.50144 0.08100
C 	C 	0.44100 0.47238 0.72042 -0.21300
H 	H 	0.35306 0.48021 0.76979 0.08800
H 	H 	0.52722 0.52715 0.72539 0.07600
H 	H 	0.33107 0.46415 0.67745 0.09300
C 	C 	0.61293 0.48676 0.86003 0.10600
H 	H 	0.71908 0.51637 0.83583 0.01400
O 	O 	0.50754 0.52741 0.90740 -0.18000
C 	C 	0.51831 0.39261 0.95523 0.11100
H 	H 	0.38629 0.37282 0.97474 0.02300
O 	O 	0.61569 0.44566 0.99663 -0.17900
C 	C 	0.93069 0.13336 0.22622 0.09600
H 	H 	0.93635 0.09761 0.26241 0.02100
O 	O 	0.05782 0.12746 0.18135 -0.16600
C 	C 	0.33212 0.37007 0.27499 -0.20800
H 	H 	0.39806 0.43036 0.28599 0.08000
H 	H 	0.23952 0.35867 0.22623 0.07700
H 	H 	0.23718 0.36869 0.32069 0.09700
C 	C 	0.77135 0.82734 0.77592 0.11500
H 	H 	0.71468 0.86842 0.82498 0.01800
O 	O 	0.68790 0.82139 0.71925 -0.19800
C 	C 	0.79011 0.64959 0.70789 -0.20400
H 	H 	0.83741 0.58902 0.70547 0.07900
H 	H 	0.68744 0.66825 0.75393 0.07600
H 	H 	0.71712 0.64687 0.65660 0.10100
C 	C 	0.93196 0.73398 0.45621 0.07800
H 	H 	0.88945 0.69663 0.48855 0.04500
O 	O 	0.91787 0.80618 0.48326 -0.16900
C 	C 	0.64956 0.78318 0.36654 0.10800
H 	H 	0.61681 0.73324 0.38595 0.02600
O 	O 	0.53255 0.83666 0.37763 -0.17800
