data_crystal

_cell_length_a 10.86326
_cell_length_b 10.63495
_cell_length_c 10.03943
_cell_angle_alpha 90.20191
_cell_angle_beta  91.24696
_cell_angle_gamma 90.32821

_symmetry_space_group_name_	'P 1'
_symmetry_space_group_name_H-M	'P 1'

loop_
_symmetry_equiv_pos_as_xyz
  x,y,z

loop_
_atom_site_label
_atom_site_type_symbol
_atom_site_fract_x
_atom_site_fract_y
_atom_site_fract_z
_atom_site_charge
C 	C 	0.49919 0.26093 0.49990 0.36200
C 	C 	0.21368 0.67838 0.02794 0.07600
C 	C 	0.93112 0.51442 0.38140 -0.00100
C 	C 	0.87293 0.50617 0.50381 -0.09500
C 	C 	0.94176 0.52433 0.62336 0.08100
C 	C 	0.06709 0.55276 0.61369 0.06900
C 	C 	0.12673 0.52590 0.49573 -0.12500
C 	C 	0.05736 0.52541 0.37703 0.06300
C 	C 	0.86521 0.58169 0.85110 0.33100
C 	C 	0.83541 0.54515 0.98006 -0.13000
C 	C 	0.82513 0.41794 0.01163 0.00300
C 	C 	0.26038 0.50940 0.49841 0.35000
C 	C 	0.84665 0.32647 0.91500 -0.04600
C 	C 	0.88112 0.36224 0.78738 0.01100
C 	C 	0.89313 0.49019 0.75530 -0.09700
C 	C 	0.55504 0.06555 0.60350 0.05000
C 	C 	0.49378 0.12883 0.50124 -0.11100
C 	C 	0.42430 0.06399 0.40414 0.01700
C 	C 	0.42650 0.93418 0.40322 -0.00200
C 	C 	0.49619 0.87143 0.50092 -0.11100
C 	C 	0.55633 0.93686 0.60351 0.05000
C 	C 	0.69037 0.93344 0.64133 -0.09100
C 	C 	0.50077 0.73919 0.50009 0.36000
C 	C 	0.68828 0.07549 0.64223 -0.08000
C 	C 	0.45743 0.39898 0.06885 -0.05800
C 	C 	0.53420 0.60409 0.07316 0.04900
C 	C 	0.53658 0.60319 0.92955 0.08900
C 	C 	0.45970 0.39852 0.92856 0.11600
C 	C 	0.50478 0.26690 0.92300 -0.21200
C 	C 	0.50045 0.26598 0.07454 0.28400
C 	C 	0.73982 0.49868 0.50157 0.34600
C 	C 	0.18400 0.75608 0.13491 -0.12100
C 	C 	0.12993 0.70643 0.24748 0.10000
C 	C 	0.10852 0.57638 0.25524 -0.06600
C 	C 	0.13487 0.49677 0.14885 0.06600
C 	C 	0.18390 0.54811 0.03204 -0.01900
H 	H 	0.80197 0.39023 0.11142 0.06900
H 	H 	0.83906 0.22782 0.93983 0.06300
H 	H 	0.90133 0.29042 0.71441 0.03700
H 	H 	0.37172 0.11332 0.32802 0.03900
H 	H 	0.37694 0.88326 0.32518 0.03500
H 	H 	0.70778 0.89390 0.74187 0.08400
H 	H 	0.74803 0.89320 0.56165 0.07400
H 	H 	0.70280 0.11634 0.74328 0.05500
H 	H 	0.74503 0.11857 0.56335 0.06300
H 	H 	0.20172 0.85632 0.12986 0.05700
H 	H 	0.43611 0.20238 0.87506 0.08400
H 	H 	0.59902 0.26096 0.88340 0.10800
H 	H 	0.43041 0.20048 0.11434 -0.02000
H 	H 	0.87880 0.51804 0.28856 0.05600
H 	H 	0.82068 0.61542 0.05581 0.07700
N 	N 	0.49916 0.49914 0.14280 -0.19900
N 	N 	0.49916 0.49918 0.85715 -0.24600
O 	O 	0.50002 0.31679 0.61469 -0.45200
O 	O 	0.50000 0.31676 0.38535 -0.42200
O 	O 	0.31677 0.50003 0.61467 -0.42600
O 	O 	0.31675 0.49999 0.38533 -0.43000
O 	O 	0.50000 0.68324 0.61465 -0.44000
O 	O 	0.49998 0.68321 0.38531 -0.44100
O 	O 	0.68325 0.50001 0.61467 -0.41800
O 	O 	0.68323 0.49997 0.38533 -0.41700
Zn	Zn	0.50001 0.50002 0.65313 1.22400
Zn	Zn	0.49999 0.49998 0.34687 1.22600
N 	N 	0.26602 0.73611 0.91337 -0.18100
H 	H 	0.32870 0.80519 0.94551 0.08100
H 	H 	0.31652 0.66997 0.86126 0.09600
N 	N 	0.57003 0.71500 0.14529 -0.18700
H 	H 	0.66109 0.73818 0.12491 0.08700
H 	H 	0.51325 0.78900 0.11491 0.08100
N 	N 	0.58015 0.71114 0.86026 -0.19600
H 	H 	0.66624 0.73607 0.89960 0.11900
H 	H 	0.52186 0.78658 0.87792 0.08600
F 	F 	0.61565 0.25454 0.13435 -0.45200
N 	N 	0.09502 0.78797 0.35408 -0.19100
H 	H 	0.03472 0.85548 0.31522 0.08200
H 	H 	0.17369 0.83443 0.39070 0.08300
N 	N 	0.11479 0.36393 0.16280 -0.18300
H 	H 	0.19979 0.31870 0.15847 0.08100
H 	H 	0.05881 0.33161 0.08403 0.07400
N 	N 	0.19495 0.47058 0.91599 -0.16400
H 	H 	0.10598 0.44827 0.88322 0.08500
H 	H 	0.23241 0.38423 0.94277 0.08000
N 	N 	0.13080 0.62901 0.71057 -0.18100
H 	H 	0.07260 0.66147 0.78316 0.12200
H 	H 	0.16074 0.71032 0.66224 0.09800
F 	F 	0.86948 0.70583 0.82044 -0.46800
