data_crystal

_cell_length_a 7.82239
_cell_length_b 8.58948
_cell_length_c 12.10999
_cell_angle_alpha 92.37120
_cell_angle_beta  101.16739
_cell_angle_gamma 94.13849

_symmetry_space_group_name_	'P 1'
_symmetry_space_group_name_H-M	'P 1'

loop_
_symmetry_equiv_pos_as_xyz
  x,y,z

loop_
_atom_site_label
_atom_site_type_symbol
_atom_site_fract_x
_atom_site_fract_y
_atom_site_fract_z
_atom_site_charge
C 	C 	0.04241 0.79431 0.49383 0.38500
C 	C 	0.15890 0.50408 0.83208 -0.12700
C 	C 	0.06179 0.95776 0.48940 -0.10600
C 	C 	0.10596 0.50370 0.71032 0.37400
C 	C 	0.92151 0.04203 0.48378 -0.00400
C 	C 	0.95339 0.20549 0.49842 0.34100
C 	C 	0.89238 0.48828 0.28970 0.36800
C 	C 	0.80992 0.28713 0.00355 -0.05300
C 	C 	0.82982 0.45659 0.17020 -0.10800
C 	C 	0.07286 0.59484 0.89973 0.02200
C 	C 	0.14400 0.62487 0.01335 -0.04500
C 	C 	0.39581 0.48361 0.99013 -0.03300
C 	C 	0.30587 0.57291 0.05830 -0.01200
C 	C 	0.67442 0.97204 0.35349 -0.00200
C 	C 	0.31020 0.43331 0.88018 0.07400
C 	C 	0.56828 0.44320 0.02712 0.00700
C 	C 	0.64123 0.33233 0.96328 0.01200
C 	C 	0.54341 0.26648 0.86161 -0.03300
C 	C 	0.37977 0.31663 0.82014 -0.05900
C 	C 	0.67146 0.51288 0.12529 0.00200
C 	C 	0.90264 0.34635 0.10869 0.02000
H 	H 	0.02624 0.30136 0.14380 0.03300
H 	H 	0.30741 0.26202 0.74111 0.06000
H 	H 	0.19468 0.01024 0.49737 0.06900
H 	H 	0.74654 0.89849 0.30322 0.04900
H 	H 	0.66807 0.09147 0.32131 0.02500
H 	H 	0.53853 0.91784 0.34150 0.04800
H 	H 	0.46992 0.37504 0.41653 0.07500
H 	H 	0.53009 0.62497 0.58345 0.08500
H 	H 	0.59461 0.17845 0.81312 0.04000
H 	H 	0.86642 0.20157 0.95620 0.04000
H 	H 	0.62774 0.60687 0.17204 0.04300
H 	H 	0.95388 0.64692 0.86401 0.04300
H 	H 	0.35538 0.60090 0.14694 0.03800
H 	H 	0.07677 0.69356 0.06586 0.05000
N 	N 	0.43480 0.45669 0.47085 -0.22800
N 	N 	0.56520 0.54331 0.52915 -0.22700
O 	O 	0.89306 0.73888 0.50715 -0.43600
O 	O 	0.17225 0.71113 0.48847 -0.44800
O 	O 	0.94470 0.52073 0.66760 -0.45600
O 	O 	0.22389 0.49298 0.64892 -0.45700
O 	O 	0.82775 0.28887 0.51153 -0.43800
O 	O 	0.10694 0.26112 0.49285 -0.45400
O 	O 	0.77611 0.50702 0.35108 -0.46000
O 	O 	0.05530 0.47927 0.33240 -0.46300
O 	O 	0.75001 0.97755 0.46936 -0.12500
Zn	Zn	0.81358 0.51853 0.51247 1.23600
Zn	Zn	0.18642 0.48147 0.48753 1.23500
