data_crystal

_cell_length_a 23.52606
_cell_length_b 8.68656
_cell_length_c 7.56739
_cell_angle_alpha 103.47551
_cell_angle_beta  95.62710
_cell_angle_gamma 94.78176

_symmetry_space_group_name_	'P 1'
_symmetry_space_group_name_H-M	'P 1'

loop_
_symmetry_equiv_pos_as_xyz
  x,y,z

loop_
_atom_site_label
_atom_site_type_symbol
_atom_site_fract_x
_atom_site_fract_y
_atom_site_fract_z
_atom_site_charge
C 	C 	0.49818 0.19976 0.45279 0.30300
C 	C 	0.69617 0.56366 0.36584 0.03700
C 	C 	0.23416 0.45336 0.31184 -0.05800
C 	C 	0.75517 0.57044 0.35443 -0.06000
C 	C 	0.20771 0.50346 0.47193 0.14200
C 	C 	0.79049 0.51400 0.48188 0.14500
C 	C 	0.49746 0.03110 0.42724 -0.02200
C 	C 	0.50269 0.96895 0.57279 -0.15200
C 	C 	0.39111 0.50314 0.50064 0.30800
C 	C 	0.60874 0.49755 0.49965 0.31000
C 	C 	0.88626 0.65180 0.55038 0.19800
C 	C 	0.50188 0.80026 0.54722 0.34500
C 	C 	0.11177 0.36640 0.42602 0.19800
C 	C 	0.87185 0.37750 0.39291 0.19500
C 	C 	0.12498 0.64930 0.50079 0.19700
C 	C 	0.93120 0.37417 0.37829 -0.06000
C 	C 	0.06596 0.65683 0.52001 -0.05800
C 	C 	0.96858 0.51585 0.45639 0.03900
C 	C 	0.02855 0.51327 0.45726 0.03800
C 	C 	0.94591 0.65952 0.53431 -0.02600
C 	C 	0.05144 0.36629 0.39778 -0.02100
C 	C 	0.95389 0.23358 0.29003 0.03700
C 	C 	0.24128 0.55621 0.64210 -0.08800
C 	C 	0.04347 0.80212 0.59357 0.04300
C 	C 	0.01401 0.22632 0.31028 -0.03300
C 	C 	0.98341 0.80373 0.59823 -0.02300
C 	C 	0.91531 0.10380 0.15722 0.13200
C 	C 	0.08299 0.95058 0.67721 0.08800
C 	C 	0.03763 0.07756 0.22223 0.32100
C 	C 	0.96049 0.95811 0.66739 0.26100
C 	C 	0.33402 0.64134 0.83933 0.09200
C 	C 	0.68300 0.35240 0.75201 0.08900
C 	C 	0.20203 0.40604 0.12487 0.14300
C 	C 	0.76631 0.44998 0.61446 -0.08800
C 	C 	0.77737 0.63511 0.20593 0.14400
C 	C 	0.44054 0.33726 0.93499 0.17400
C 	C 	0.55937 0.66295 0.06498 0.14000
C 	C 	0.30134 0.56387 0.65775 0.05800
C 	C 	0.70684 0.43798 0.62218 0.06400
C 	C 	0.32814 0.50705 0.49828 -0.08300
C 	C 	0.67139 0.49864 0.49766 -0.08800
C 	C 	0.29376 0.45171 0.32816 0.03400
Cu	Cu	0.50634 0.51738 0.68438 0.92800
Cu	Cu	0.49366 0.48262 0.31562 0.92800
H 	H 	0.21996 0.59765 0.76232 0.09100
H 	H 	0.90967 0.12181 0.61508 0.17200
H 	H 	0.37659 0.70330 0.85035 0.04900
H 	H 	0.63810 0.30561 0.73281 0.05100
H 	H 	0.22334 0.34885 0.01004 0.03000
H 	H 	0.74845 0.68569 0.11960 0.02900
H 	H 	0.43084 0.31133 0.79007 0.02200
H 	H 	0.56888 0.68931 0.20994 0.02300
H 	H 	0.79436 0.40423 0.70775 0.09600
H 	H 	0.31360 0.40918 0.20511 0.06300
H 	H 	0.66916 0.60943 0.27000 0.04900
H 	H 	0.49264 0.95786 0.28782 0.07100
H 	H 	0.50752 0.04219 0.71221 0.12400
H 	H 	0.88460 0.13446 0.05773 0.04800
H 	H 	0.12225 0.94541 0.76249 0.04700
H 	H 	0.09220 0.97503 0.05514 0.15900
N 	N 	0.85119 0.51480 0.47424 -0.16900
N 	N 	0.14659 0.50615 0.46501 -0.16900
N 	N 	0.48411 0.45642 0.03852 -0.16300
N 	N 	0.51589 0.54358 0.96148 -0.14800
O 	O 	0.50412 0.28613 0.61977 -0.36800
O 	O 	0.13592 0.22962 0.41559 -0.15100
O 	O 	0.83479 0.24389 0.33303 -0.17100
O 	O 	0.16069 0.78216 0.51320 -0.17700
O 	O 	0.91587 0.96418 0.16048 -0.14800
O 	O 	0.07257 0.07931 0.65104 -0.11900
O 	O 	0.02458 0.95339 0.26531 -0.21400
O 	O 	0.07634 0.08103 0.09436 -0.25800
O 	O 	0.97532 0.03455 0.82461 -0.18100
O 	O 	0.92232 0.01615 0.55198 -0.24000
O 	O 	0.31278 0.64109 0.98023 -0.16500
O 	O 	0.49588 0.71387 0.38023 -0.37900
O 	O 	0.71381 0.32959 0.88093 -0.15500
O 	O 	0.15250 0.43398 0.09474 -0.16500
O 	O 	0.82725 0.63099 0.17516 -0.16300
O 	O 	0.41172 0.25792 0.01400 -0.19000
O 	O 	0.58835 0.74185 0.98590 -0.17600
O 	O 	0.49341 0.25677 0.30836 -0.35000
O 	O 	0.50659 0.74323 0.69164 -0.36600
O 	O 	0.42323 0.51463 0.65573 -0.37000
O 	O 	0.57677 0.48537 0.34427 -0.36800
O 	O 	0.41253 0.48528 0.34432 -0.35300
O 	O 	0.58747 0.51472 0.65568 -0.35700
O 	O 	0.86299 0.77756 0.64498 -0.16200
