data_crystal

_cell_length_a 6.93710
_cell_length_b 17.66598
_cell_length_c 19.37843
_cell_angle_alpha 108.55751
_cell_angle_beta  89.73259
_cell_angle_gamma 90.24495

_symmetry_space_group_name_	'P 1'
_symmetry_space_group_name_H-M	'P 1'

loop_
_symmetry_equiv_pos_as_xyz
  x,y,z

loop_
_atom_site_label
_atom_site_type_symbol
_atom_site_fract_x
_atom_site_fract_y
_atom_site_fract_z
_atom_site_charge
O 	O 	0.49433 0.41572 0.41372 -0.48200
O 	O 	0.81933 0.43007 0.56021 -0.50000
O 	O 	0.99432 0.58428 0.58628 -0.48300
C 	C 	0.65044 0.41459 0.58150 0.38800
O 	O 	0.82373 0.40630 0.41267 -0.49600
O 	O 	0.99876 0.56034 0.43769 -0.48700
C 	C 	0.65534 0.38395 0.38475 0.39100
O 	O 	0.48989 0.43966 0.56231 -0.48300
O 	O 	0.66234 0.55056 0.50838 -0.62500
V 	V 	0.93537 0.49062 0.49845 1.80900
O 	O 	0.32875 0.56993 0.43979 -0.47500
C 	C 	0.16033 0.58379 0.41713 0.42500
O 	O 	0.32434 0.59370 0.58733 -0.46300
C 	C 	0.15512 0.61722 0.61450 0.40800
V 	V 	0.43594 0.50938 0.50155 1.81300
O 	O 	0.15910 0.44944 0.49162 -0.62700
H 	H 	0.29223 0.87462 0.57019 0.11800
C 	C 	0.06170 0.59321 0.75099 -0.03600
C 	C 	0.01528 0.57912 0.81588 -0.01300
C 	C 	0.00292 0.64239 0.88041 0.00700
C 	C 	0.03713 0.72021 0.88057 -0.06600
C 	C 	0.08364 0.73647 0.81546 0.08300
C 	C 	0.09596 0.67172 0.74921 0.01300
C 	C 	0.12078 0.81552 0.81592 -0.14800
C 	C 	0.16934 0.83005 0.75006 0.13000
C 	C 	0.18037 0.76554 0.68323 -0.09800
C 	C 	0.14437 0.68595 0.68306 -0.03200
C 	C 	0.20412 0.90889 0.74944 -0.11700
C 	C 	0.24914 0.92426 0.68520 0.07800
C 	C 	0.25883 0.86200 0.62008 -0.18400
C 	C 	0.22427 0.78359 0.61831 0.36400
H 	H 	0.07131 0.54171 0.70252 0.05400
H 	H 	0.98952 0.51869 0.81607 0.02700
H 	H 	0.96751 0.63112 0.93074 0.02600
H 	H 	0.02763 0.76726 0.93234 0.06700
H 	H 	0.19575 0.95980 0.79845 0.08000
H 	H 	0.27523 0.98498 0.68590 0.02700
C 	C 	0.99022 0.62562 0.32086 0.06900
C 	C 	0.15157 0.63126 0.36625 -0.09400
C 	C 	0.30582 0.68146 0.36195 0.04100
C 	C 	0.29906 0.72640 0.31396 -0.01700
C 	C 	0.13737 0.72024 0.26842 0.09800
C 	C 	0.98266 0.66921 0.27143 -0.15200
C 	C 	0.45162 0.77753 0.31077 0.00800
C 	C 	0.44537 0.82164 0.26243 -0.06500
C 	C 	0.28582 0.81589 0.21677 0.06100
C 	C 	0.13063 0.76536 0.21987 -0.06200
C 	C 	0.96905 0.75997 0.17453 0.09400
C 	C 	0.81757 0.70795 0.17699 -0.20300
C 	C 	0.82409 0.66280 0.22478 0.36700
C 	C 	0.27822 0.86056 0.16870 -0.04100
C 	C 	0.11471 0.85907 0.12579 -0.03400
C 	C 	0.96146 0.80717 0.12806 -0.06200
H 	H 	0.87177 0.58636 0.32338 0.05800
H 	H 	0.43059 0.68632 0.39661 0.06700
H 	H 	0.57661 0.78305 0.34539 0.04800
H 	H 	0.56552 0.86040 0.26095 0.06500
H 	H 	0.39898 0.89750 0.16555 0.06800
H 	H 	0.83606 0.80382 0.09402 0.06700
H 	H 	0.69293 0.70264 0.14224 0.11100
C 	C 	0.46781 0.18860 0.86967 0.35200
C 	C 	0.62221 0.13709 0.87101 -0.18600
C 	C 	0.78155 0.13290 0.82473 0.02100
C 	C 	0.78625 0.17778 0.77653 0.05000
C 	C 	0.63100 0.22868 0.77514 0.00500
C 	C 	0.47178 0.23445 0.82215 -0.09300
C 	C 	0.94295 0.17203 0.72911 -0.19200
C 	C 	0.94709 0.21660 0.68094 0.33900
C 	C 	0.79410 0.26814 0.67955 -0.12000
C 	C 	0.63485 0.27386 0.72658 0.04600
C 	C 	0.47930 0.32470 0.72512 0.01400
C 	C 	0.32279 0.33054 0.77256 -0.03800
C 	C 	0.31896 0.28590 0.82056 0.03100
C 	C 	0.79719 0.31414 0.63223 0.06700
C 	C 	0.64238 0.36479 0.63033 -0.11100
C 	C 	0.48316 0.36914 0.67658 0.01900
H 	H 	0.90037 0.09333 0.82509 0.05100
H 	H 	0.06290 0.13301 0.72938 0.12300
H 	H 	0.91980 0.31025 0.59641 0.05600
H 	H 	0.36390 0.40839 0.67589 0.05000
H 	H 	0.20243 0.36935 0.77225 0.05600
H 	H 	0.19516 0.29141 0.85608 0.06700
H 	H 	0.92159 0.14784 0.42672 0.05100
C 	C 	0.51580 0.40329 0.25122 -0.04100
C 	C 	0.44885 0.41498 0.18778 -0.01400
C 	C 	0.43908 0.35122 0.12366 -0.00900
C 	C 	0.49511 0.27525 0.12266 -0.04400
C 	C 	0.56052 0.26095 0.18666 0.04900
C 	C 	0.57211 0.32656 0.25214 0.05100
C 	C 	0.61652 0.18323 0.18568 -0.10200
C 	C 	0.68452 0.17105 0.25127 0.03500
C 	C 	0.70888 0.23877 0.31509 0.05700
C 	C 	0.64584 0.31541 0.31622 -0.11400
C 	C 	0.72922 0.09387 0.25679 -0.02200
C 	C 	0.82337 0.08752 0.31867 -0.02400
C 	C 	0.85538 0.15415 0.37836 -0.01400
C 	C 	0.79223 0.22819 0.37798 -0.05000
H 	H 	0.52515 0.45545 0.29908 0.06600
H 	H 	0.40632 0.47404 0.18824 0.07100
H 	H 	0.38894 0.36069 0.07423 0.05900
H 	H 	0.48722 0.22834 0.07085 0.07800
H 	H 	0.86184 0.02975 0.32287 0.05200
H 	H 	0.81063 0.27671 0.42811 0.06500
O 	O 	0.77520 0.06047 0.93780 -0.48500
O 	O 	0.44111 0.09372 0.08735 -0.48800
O 	O 	0.26633 0.93963 0.06228 -0.47600
C 	C 	0.60961 0.11673 0.11521 0.38200
O 	O 	0.44575 0.06995 0.93982 -0.46100
O 	O 	0.27100 0.91570 0.91370 -0.48600
C 	C 	0.61459 0.08615 0.91906 0.42800
O 	O 	0.77053 0.08440 0.08638 -0.48100
O 	O 	0.60283 0.94951 0.99168 -0.63500
V 	V 	0.32971 0.00937 0.00155 1.80600
O 	O 	0.94099 0.90617 0.91257 -0.50900
C 	C 	0.11018 0.88322 0.88517 0.41500
O 	O 	0.93635 0.92994 0.06010 -0.49000
C 	C 	0.10514 0.91233 0.07964 0.37700
V 	V 	0.82916 0.99045 0.99831 1.81100
O 	O 	0.10591 0.05048 0.00832 -0.62300
F 	F 	0.67452 0.61326 0.22565 -0.46800
F 	F 	0.31459 0.19513 0.91522 -0.44500
F 	F 	0.10107 0.20928 0.63577 -0.44600
C 	C 	0.65708 0.01834 0.20541 0.10000
H 	H 	0.52340 0.01720 0.17679 0.01900
O 	O 	0.74158 0.95571 0.19724 -0.18500
F 	F 	0.23165 0.72675 0.55217 -0.45200
