data_crystal

_cell_length_a 16.87526
_cell_length_b 7.25407
_cell_length_c 14.92523
_cell_angle_alpha 90.00026
_cell_angle_beta  94.58477
_cell_angle_gamma 89.99967

_symmetry_space_group_name_	'P 1'
_symmetry_space_group_name_H-M	'P 1'

loop_
_symmetry_equiv_pos_as_xyz
  x,y,z

loop_
_atom_site_label
_atom_site_type_symbol
_atom_site_fract_x
_atom_site_fract_y
_atom_site_fract_z
_atom_site_charge
O 	O 	0.66346 0.36176 0.16597 -0.45600
O 	O 	0.33654 0.63824 0.83403 -0.45600
O 	O 	0.83654 0.86176 0.33403 -0.45800
O 	O 	0.16346 0.13824 0.66597 -0.45800
O 	O 	0.82710 0.68987 0.16373 -0.47700
O 	O 	0.17290 0.31013 0.83627 -0.47700
O 	O 	0.67290 0.18987 0.33627 -0.47700
O 	O 	0.32710 0.81013 0.66373 -0.47700
C 	C 	0.85374 0.52303 0.14414 0.36400
C 	C 	0.14626 0.47697 0.85586 0.36400
C 	C 	0.64626 0.02303 0.35587 0.36500
C 	C 	0.35374 0.97697 0.64413 0.36500
O 	O 	0.66349 0.69137 0.15550 -0.46500
O 	O 	0.33651 0.30863 0.84450 -0.46500
O 	O 	0.83651 0.19137 0.34450 -0.46500
O 	O 	0.16349 0.80863 0.65550 -0.46500
O 	O 	0.67177 0.86332 0.32574 -0.48300
O 	O 	0.32823 0.13668 0.67426 -0.48300
O 	O 	0.82823 0.36332 0.17426 -0.48200
O 	O 	0.17177 0.63668 0.82574 -0.48200
C 	C 	0.63897 0.52391 0.12989 0.33500
C 	C 	0.36103 0.47609 0.87011 0.33500
C 	C 	0.86102 0.02391 0.37012 0.33600
C 	C 	0.13898 0.97609 0.62988 0.33600
H 	H 	0.10001 0.10133 0.21414 0.04500
H 	H 	0.89999 0.89867 0.78586 0.04500
H 	H 	0.39998 0.60164 0.28583 0.04500
H 	H 	0.60001 0.39837 0.71417 0.04500
O 	O 	0.75291 0.52880 0.30586 -0.59700
O 	O 	0.24709 0.47120 0.69414 -0.59700
O 	O 	0.74709 0.02880 0.19414 -0.59700
O 	O 	0.25291 0.97120 0.80586 -0.59700
V 	V 	0.74946 0.80301 0.23964 1.80400
V 	V 	0.25054 0.19699 0.76036 1.80400
V 	V 	0.75054 0.30301 0.26036 1.80400
V 	V 	0.24946 0.69699 0.73964 1.80400
C 	C 	0.46900 0.99470 0.53032 0.04400
C 	C 	0.53100 0.00530 0.46968 0.04400
C 	C 	0.03100 0.49471 0.96968 0.04400
C 	C 	0.96901 0.50530 0.03032 0.04400
H 	H 	0.78502 0.00820 0.69044 0.04500
H 	H 	0.21498 0.99180 0.30956 0.04500
H 	H 	0.71499 0.50791 0.80957 0.04600
H 	H 	0.28501 0.49209 0.19043 0.04600
C 	C 	0.01870 0.06951 0.31640 -0.04700
C 	C 	0.98130 0.93049 0.68360 -0.04700
C 	C 	0.48130 0.56968 0.18359 -0.04700
C 	C 	0.51870 0.43032 0.81641 -0.04700
C 	C 	0.09345 0.06802 0.28388 -0.01600
C 	C 	0.90655 0.93198 0.71612 -0.01600
C 	C 	0.40654 0.56826 0.21610 -0.01600
C 	C 	0.59345 0.43174 0.78390 -0.01600
C 	C 	0.15875 0.01040 0.33885 -0.02400
C 	C 	0.84125 0.98960 0.66115 -0.02400
C 	C 	0.34125 0.51064 0.16114 -0.02500
C 	C 	0.65875 0.48936 0.83886 -0.02500
C 	C 	0.15079 0.96289 0.42852 -0.02900
C 	C 	0.84922 0.03711 0.57148 -0.02900
C 	C 	0.34921 0.46305 0.07148 -0.02800
C 	C 	0.65079 0.53695 0.92852 -0.02800
C 	C 	0.07712 0.99096 0.46735 0.03800
C 	C 	0.92288 0.00904 0.53265 0.03800
C 	C 	0.42288 0.49104 0.03265 0.03700
C 	C 	0.57712 0.50896 0.96735 0.03700
C 	C 	0.00856 0.02787 0.40748 0.04500
C 	C 	0.99144 0.97213 0.59252 0.04500
C 	C 	0.49144 0.52795 0.09251 0.04500
C 	C 	0.50856 0.47204 0.90749 0.04500
C 	C 	0.06872 0.97703 0.56164 -0.08600
C 	C 	0.93127 0.02296 0.43835 -0.08600
C 	C 	0.43127 0.47703 0.93836 -0.08600
C 	C 	0.56873 0.52297 0.06164 -0.08600
C 	C 	0.41642 0.98606 0.58194 -0.08700
C 	C 	0.58358 0.01394 0.41806 -0.08700
C 	C 	0.08357 0.48606 0.91806 -0.08700
C 	C 	0.91643 0.51394 0.08194 -0.08700
H 	H 	0.96912 0.10604 0.26930 0.06100
H 	H 	0.03088 0.89396 0.73070 0.06100
H 	H 	0.53088 0.60621 0.23068 0.06000
H 	H 	0.46912 0.39379 0.76932 0.06000
C 	C 	0.21204 0.84354 0.46813 0.09500
N 	N 	0.26079 0.74239 0.49622 -0.10900
C 	C 	0.78796 0.15646 0.53187 0.09500
N 	N 	0.73921 0.25761 0.50378 -0.10900
C 	C 	0.28795 0.34369 0.03189 0.09500
N 	N 	0.23919 0.24255 0.00381 -0.10900
C 	C 	0.71205 0.65631 0.96811 0.09500
N 	N 	0.76081 0.75745 0.99619 -0.10900
