data_crystal

_cell_length_a 7.81524
_cell_length_b 8.56655
_cell_length_c 12.48896
_cell_angle_alpha 92.60691
_cell_angle_beta  103.19422
_cell_angle_gamma 93.72227

_symmetry_space_group_name_	'P 1'
_symmetry_space_group_name_H-M	'P 1'

loop_
_symmetry_equiv_pos_as_xyz
  x,y,z

loop_
_atom_site_label
_atom_site_type_symbol
_atom_site_fract_x
_atom_site_fract_y
_atom_site_fract_z
_atom_site_charge
C 	C 	0.04473 0.79463 0.49832 0.39800
C 	C 	0.19303 0.61012 0.81912 -0.10700
C 	C 	0.06943 0.95838 0.50006 -0.14100
C 	C 	0.11560 0.53942 0.70627 0.35200
C 	C 	0.93307 0.04213 0.50541 -0.09300
C 	C 	0.95608 0.20554 0.50332 0.36500
C 	C 	0.88845 0.48439 0.29117 0.35600
C 	C 	0.84622 0.41383 0.98707 -0.08600
C 	C 	0.82402 0.47762 0.17296 -0.12200
C 	C 	0.08655 0.67255 0.88394 0.01800
C 	C 	0.15568 0.71280 0.99569 -0.02900
C 	C 	0.43929 0.62312 0.97974 0.01300
C 	C 	0.32841 0.68200 0.04488 -0.05200
C 	C 	0.04338 0.28529 0.13609 0.01200
C 	C 	0.19863 0.29258 0.09697 -0.04100
C 	C 	0.32605 0.18612 0.12915 -0.02300
C 	C 	0.29753 0.06830 0.19816 -0.02500
C 	C 	0.14123 0.05644 0.23456 -0.01900
C 	C 	0.01492 0.16468 0.20433 -0.02600
C 	C 	0.37622 0.61258 0.86487 0.04700
C 	C 	0.60560 0.56413 0.02221 -0.04500
C 	C 	0.70077 0.49948 0.94885 0.05900
C 	C 	0.65016 0.52412 0.83783 -0.06300
C 	C 	0.49879 0.59743 0.79965 -0.03100
C 	C 	0.67535 0.55875 0.13395 0.01900
C 	C 	0.90555 0.39602 0.09950 0.05000
H 	H 	0.80398 0.99116 0.51003 0.07700
H 	H 	0.47476 0.63737 0.71827 0.04800
H 	H 	0.19869 0.00944 0.49586 0.09900
H 	H 	0.22052 0.37960 0.04085 0.04800
H 	H 	0.44599 0.19398 0.09953 0.04000
H 	H 	0.39551 0.98503 0.22229 0.03100
H 	H 	0.11730 0.96227 0.28528 0.03800
H 	H 	0.89384 0.15282 0.23256 0.03900
H 	H 	0.47092 0.36326 0.42845 0.07600
H 	H 	0.52937 0.64502 0.56142 0.07000
H 	H 	0.72730 0.48798 0.78096 0.05700
H 	H 	0.91002 0.35733 0.92881 0.05900
H 	H 	0.61560 0.61789 0.19240 0.03800
H 	H 	0.95075 0.69088 0.84828 0.03100
H 	H 	0.36951 0.70284 0.13305 0.04400
H 	H 	0.07204 0.75950 0.04557 0.04000
N 	N 	0.43480 0.45669 0.47085 -0.22900
N 	N 	0.56520 0.54331 0.52915 -0.23000
O 	O 	0.89306 0.73888 0.50715 -0.47200
O 	O 	0.17225 0.71113 0.48847 -0.46700
O 	O 	0.94470 0.52073 0.66760 -0.45100
O 	O 	0.22389 0.49298 0.64892 -0.44200
O 	O 	0.82775 0.28887 0.51153 -0.45300
O 	O 	0.10694 0.26112 0.49285 -0.44700
O 	O 	0.77611 0.50702 0.35108 -0.45100
O 	O 	0.05530 0.47927 0.33240 -0.44200
Zn	Zn	0.81358 0.51853 0.51247 1.23100
Zn	Zn	0.18642 0.48147 0.48753 1.23200
