data_crystal

_cell_length_a 19.15015
_cell_length_b 10.90373
_cell_length_c 18.75831
_cell_angle_alpha 89.83413
_cell_angle_beta  88.86005
_cell_angle_gamma 89.92172

_symmetry_space_group_name_	'P 1'
_symmetry_space_group_name_H-M	'P 1'

loop_
_symmetry_equiv_pos_as_xyz
  x,y,z

loop_
_atom_site_label
_atom_site_type_symbol
_atom_site_fract_x
_atom_site_fract_y
_atom_site_fract_z
_atom_site_charge
C 	C 	0.24088 0.46599 0.64743 0.45300
C 	C 	0.75938 0.46572 0.35264 0.45500
C 	C 	0.74088 0.96599 0.64743 0.49800
C 	C 	0.25938 0.96572 0.35264 0.50000
C 	C 	0.27647 0.81846 0.53191 0.02100
C 	C 	0.72815 0.81412 0.46900 0.01600
C 	C 	0.77646 0.31846 0.53191 0.02100
C 	C 	0.22815 0.31412 0.46900 0.01700
C 	C 	0.95774 0.65183 0.43938 -0.09800
C 	C 	0.04113 0.65829 0.56119 -0.10500
C 	C 	0.45774 0.15183 0.43938 -0.09800
C 	C 	0.54113 0.15829 0.56119 -0.09600
C 	C 	0.92920 0.86718 0.45984 -0.07600
C 	C 	0.03379 0.88665 0.55734 -0.05500
C 	C 	0.42920 0.36717 0.45984 -0.06500
C 	C 	0.53379 0.38666 0.55734 -0.05400
C 	C 	0.94127 0.97959 0.49184 0.01700
C 	C 	0.99566 0.99033 0.53894 -0.00800
C 	C 	0.44127 0.47959 0.49184 -0.02000
C 	C 	0.49566 0.49033 0.53894 -0.02900
C 	C 	0.01591 0.76928 0.53152 0.05200
C 	C 	0.96882 0.76331 0.47517 0.04300
C 	C 	0.51591 0.26928 0.53152 0.04100
C 	C 	0.46882 0.26331 0.47517 0.04400
C 	C 	0.02906 0.54623 0.52525 0.05700
C 	C 	0.97975 0.54141 0.47161 0.03500
C 	C 	0.52906 0.04623 0.52525 0.01400
C 	C 	0.47975 0.04141 0.47161 0.01500
C 	C 	0.06409 0.43701 0.54286 -0.06400
C 	C 	0.95532 0.42511 0.45013 -0.04200
C 	C 	0.56409 0.93701 0.54286 -0.01400
C 	C 	0.45532 0.92511 0.45013 -0.00700
C 	C 	0.04497 0.32424 0.51490 -0.01100
C 	C 	0.98861 0.31780 0.47024 -0.04100
C 	C 	0.54497 0.82424 0.51490 -0.02700
C 	C 	0.48861 0.81780 0.47024 -0.03400
C 	C 	0.22408 0.85437 0.93437 -0.13200
C 	C 	0.76278 0.89744 0.07143 -0.17800
C 	C 	0.72408 0.35442 0.93436 -0.13600
C 	C 	0.26278 0.39742 0.07142 -0.18000
C 	C 	0.24234 0.88992 0.08785 -0.24900
C 	C 	0.75078 0.89504 0.91556 -0.25700
C 	C 	0.74235 0.38992 0.08785 -0.24800
C 	C 	0.25079 0.39504 0.91556 -0.25500
C 	C 	0.22702 0.87305 0.64688 0.45800
C 	C 	0.77219 0.87416 0.35251 0.44700
C 	C 	0.72702 0.37305 0.64688 0.45500
C 	C 	0.27219 0.37416 0.35251 0.44400
C 	C 	0.17937 0.89835 0.05527 0.13400
C 	C 	0.81240 0.89285 0.94904 0.13600
C 	C 	0.67939 0.39833 0.05527 0.13400
C 	C 	0.31241 0.39290 0.94903 0.13700
C 	C 	0.17130 0.85652 0.98165 -0.03600
C 	C 	0.81365 0.86290 0.02513 -0.01700
C 	C 	0.67132 0.35645 0.98166 -0.04200
C 	C 	0.31369 0.36299 0.02513 -0.02400
C 	C 	0.04066 0.65227 0.93268 -0.15700
C 	C 	0.01641 0.66393 0.08642 -0.22000
C 	C 	0.54065 0.15226 0.93268 -0.14700
C 	C 	0.51641 0.16392 0.08642 -0.21800
C 	C 	0.04173 0.56449 0.05296 0.04300
C 	C 	0.06511 0.56845 0.97820 -0.00200
C 	C 	0.54173 0.06449 0.05296 0.01100
C 	C 	0.56510 0.06844 0.97820 -0.03700
C 	C 	0.06167 0.65117 0.63685 0.31700
C 	C 	0.93784 0.64973 0.36317 0.31200
C 	C 	0.56167 0.15117 0.63685 0.31000
C 	C 	0.43784 0.14973 0.36317 0.30800
C 	C 	0.23904 0.46290 0.84979 0.45700
C 	C 	0.76008 0.46263 0.15055 0.45300
C 	C 	0.73904 0.96289 0.84979 0.49600
C 	C 	0.26008 0.96262 0.15056 0.49300
C 	C 	0.20945 0.82817 0.86072 0.33700
C 	C 	0.77414 0.87180 0.14599 0.44800
C 	C 	0.70945 0.32819 0.86072 0.33600
C 	C 	0.27414 0.37179 0.14598 0.44400
C 	C 	0.06137 0.64721 0.85840 0.34600
C 	C 	0.97316 0.65266 0.15048 0.47200
C 	C 	0.56136 0.14721 0.85840 0.33900
C 	C 	0.47316 0.15266 0.15048 0.47200
C 	C 	0.24726 0.90545 0.57427 -0.19900
C 	C 	0.75127 0.90516 0.42527 -0.19500
C 	C 	0.74726 0.40544 0.57427 -0.20400
C 	C 	0.25127 0.40515 0.42527 -0.19900
C 	C 	0.24058 0.90631 0.41963 -0.22700
C 	C 	0.76062 0.90938 0.57999 -0.22700
C 	C 	0.74058 0.40631 0.41963 -0.21700
C 	C 	0.26062 0.40938 0.57999 -0.21600
C 	C 	0.28434 0.83421 0.45465 0.04500
C 	C 	0.72107 0.82900 0.54655 0.04500
C 	C 	0.78434 0.33421 0.45465 0.03300
C 	C 	0.22107 0.32900 0.54655 0.03400
Cr	Cr	0.11397 0.50863 0.74792 1.53200
Cr	Cr	0.88603 0.50863 0.25208 1.53600
Cr	Cr	0.61397 0.00863 0.74792 1.52200
Cr	Cr	0.38603 0.00863 0.25208 1.52500
Cr	Cr	0.26920 0.66674 0.74985 1.54100
Cr	Cr	0.73080 0.66674 0.25015 1.54300
Cr	Cr	0.76920 0.16674 0.74985 1.53900
Cr	Cr	0.23080 0.16674 0.25015 1.54200
Cr	Cr	0.11230 0.82007 0.74980 1.53300
Cr	Cr	0.88770 0.82007 0.25020 1.53900
Cr	Cr	0.61230 0.32007 0.74980 1.53100
Cr	Cr	0.38770 0.32007 0.25020 1.53800
H 	H 	0.32683 0.78767 0.42694 0.01700
H 	H 	0.68157 0.77721 0.57579 0.01700
H 	H 	0.82683 0.28767 0.42694 0.01400
H 	H 	0.18157 0.27721 0.57579 0.01400
H 	H 	0.11877 0.84259 0.96287 0.04000
H 	H 	0.86110 0.82096 0.04501 0.04100
H 	H 	0.61879 0.34240 0.96290 0.03900
H 	H 	0.36118 0.32119 0.04502 0.04000
H 	H 	0.28441 0.83608 0.06415 0.10300
H 	H 	0.70459 0.85717 0.94202 0.10500
H 	H 	0.78442 0.33609 0.06414 0.09500
H 	H 	0.20461 0.35713 0.94202 0.09900
H 	H 	0.27765 0.87207 0.94902 0.08500
H 	H 	0.71440 0.93983 0.05484 0.08500
H 	H 	0.77765 0.37227 0.94900 0.07900
H 	H 	0.21434 0.43963 0.05482 0.07800
H 	H 	0.04052 0.47521 0.07881 0.02300
H 	H 	0.09840 0.49450 0.95878 0.02800
H 	H 	0.54051 0.97520 0.07881 0.05300
H 	H 	0.59840 0.99450 0.95878 0.05800
H 	H 	0.02088 0.75408 0.06270 0.08900
H 	H 	0.00549 0.72498 0.94951 0.08100
H 	H 	0.52087 0.25407 0.06270 0.08600
H 	H 	0.50547 0.22496 0.94951 0.07500
H 	H 	0.29443 0.73196 0.55392 0.03300
H 	H 	0.71483 0.72469 0.44782 0.03400
H 	H 	0.79443 0.23196 0.55392 0.02600
H 	H 	0.21483 0.22470 0.44782 0.02700
H 	H 	0.19257 0.93769 0.44566 0.10800
H 	H 	0.80600 0.94811 0.55269 0.10900
H 	H 	0.69257 0.43769 0.44566 0.09600
H 	H 	0.30600 0.44811 0.55269 0.09700
H 	H 	0.22959 0.99269 0.55315 0.09800
H 	H 	0.76474 0.99513 0.44540 0.09500
H 	H 	0.72959 0.49269 0.55315 0.09000
H 	H 	0.26474 0.49513 0.44540 0.08700
H 	H 	0.90792 0.05712 0.48060 -0.00500
H 	H 	0.00665 0.07744 0.56344 0.00500
H 	H 	0.40792 0.55712 0.48060 0.02800
H 	H 	0.50665 0.57744 0.56344 0.02700
H 	H 	0.88485 0.85654 0.42853 0.06600
H 	H 	0.07690 0.90015 0.59150 0.05800
H 	H 	0.38485 0.35654 0.42853 0.06000
H 	H 	0.57690 0.40015 0.59150 0.05200
H 	H 	0.91192 0.41701 0.41547 0.04500
H 	H 	0.10650 0.43951 0.57825 0.05600
H 	H 	0.41192 0.91701 0.41547 0.04600
H 	H 	0.60650 0.93951 0.57825 0.05200
H 	H 	0.07306 0.24197 0.52878 0.02000
H 	H 	0.97200 0.23074 0.44929 0.02300
H 	H 	0.57306 0.74197 0.52878 0.02900
H 	H 	0.47200 0.73074 0.44929 0.02900
O 	O 	0.04323 0.54930 0.66799 -0.43200
O 	O 	0.95677 0.54930 0.33201 -0.43800
O 	O 	0.54323 0.04930 0.66799 -0.44500
O 	O 	0.45677 0.04930 0.33201 -0.45000
O 	O 	0.26292 0.78860 0.82442 -0.49100
O 	O 	0.73708 0.78860 0.17558 -0.53700
O 	O 	0.76292 0.28860 0.82442 -0.49800
O 	O 	0.23708 0.28860 0.17558 -0.54000
O 	O 	0.16753 0.90511 0.83034 -0.43900
O 	O 	0.83247 0.90511 0.16966 -0.48700
O 	O 	0.66753 0.40511 0.83034 -0.44600
O 	O 	0.33247 0.40511 0.16966 -0.49200
O 	O 	0.05401 0.74844 0.82286 -0.50900
O 	O 	0.94599 0.74844 0.17714 -0.55700
O 	O 	0.55401 0.24844 0.82286 -0.51200
O 	O 	0.44599 0.24844 0.17714 -0.55900
O 	O 	0.16516 0.66515 0.74919 -0.76300
O 	O 	0.83484 0.66515 0.25081 -0.74900
O 	O 	0.66516 0.16515 0.74919 -0.76900
O 	O 	0.33484 0.16515 0.25081 -0.75500
O 	O 	0.17862 0.45760 0.67410 -0.55400
O 	O 	0.82138 0.45760 0.32590 -0.55600
O 	O 	0.67862 0.95760 0.67410 -0.54500
O 	O 	0.32138 0.95760 0.32590 -0.54700
O 	O 	0.28468 0.54210 0.66946 -0.50500
O 	O 	0.71532 0.54210 0.33054 -0.50700
O 	O 	0.78468 0.04210 0.66946 -0.54300
O 	O 	0.21532 0.04210 0.33054 -0.54400
O 	O 	0.26286 0.79039 0.67665 -0.53900
O 	O 	0.73714 0.79039 0.32335 -0.53800
O 	O 	0.76286 0.29039 0.67665 -0.54400
O 	O 	0.23714 0.29039 0.32335 -0.54200
O 	O 	0.16746 0.90703 0.67094 -0.50500
O 	O 	0.83254 0.90703 0.32906 -0.50300
O 	O 	0.66746 0.40703 0.67094 -0.51100
O 	O 	0.33254 0.40703 0.32906 -0.50800
O 	O 	0.05395 0.75022 0.67510 -0.47500
O 	O 	0.94605 0.75022 0.32490 -0.47600
O 	O 	0.55395 0.25022 0.67510 -0.47800
O 	O 	0.44605 0.25022 0.32490 -0.47800
O 	O 	0.04330 0.54737 0.82739 -0.45600
O 	O 	0.95670 0.54737 0.17261 -0.51400
O 	O 	0.54330 0.04737 0.82739 -0.46700
O 	O 	0.45670 0.04737 0.17261 -0.52500
O 	O 	0.17869 0.45582 0.82186 -0.54600
O 	O 	0.82131 0.45582 0.17814 -0.53300
O 	O 	0.67869 0.95582 0.82186 -0.53600
O 	O 	0.32131 0.95582 0.17814 -0.52000
O 	O 	0.28475 0.54017 0.82886 -0.50500
O 	O 	0.71525 0.54017 0.17114 -0.50000
O 	O 	0.78475 0.04017 0.82886 -0.54000
O 	O 	0.21525 0.04017 0.17114 -0.53600
C 	C 	0.11503 0.95851 0.08847 -0.16800
H 	H 	0.06803 0.94478 0.05586 0.06000
H 	H 	0.10375 0.91921 0.14217 0.07400
H 	H 	0.12189 0.05941 0.09120 0.05100
C 	C 	0.88143 0.92332 0.91265 -0.17100
H 	H 	0.92595 0.89538 0.94603 0.06200
H 	H 	0.88650 0.87408 0.86104 0.07800
H 	H 	0.88620 0.02371 0.90415 0.04800
C 	C 	0.61504 0.45850 0.08846 -0.21100
H 	H 	0.56804 0.44477 0.05583 0.06300
H 	H 	0.60375 0.41920 0.14215 0.07400
H 	H 	0.62190 0.55940 0.09119 0.08100
C 	C 	0.38143 0.42346 0.91263 -0.21600
H 	H 	0.42597 0.39529 0.94594 0.06800
H 	H 	0.38644 0.37449 0.86093 0.08200
H 	H 	0.38620 0.52391 0.90431 0.08100
