data_crystal

_cell_length_a 8.25695
_cell_length_b 12.67592
_cell_length_c 18.68977
_cell_angle_alpha 99.56105
_cell_angle_beta  90.68420
_cell_angle_gamma 98.82505

_symmetry_space_group_name_	'P 1'
_symmetry_space_group_name_H-M	'P 1'

loop_
_symmetry_equiv_pos_as_xyz
  x,y,z

loop_
_atom_site_label
_atom_site_type_symbol
_atom_site_fract_x
_atom_site_fract_y
_atom_site_fract_z
_atom_site_charge
Ba	Ba	0.85278 0.54834 0.46507 1.85900
Ba	Ba	0.33706 0.45175 0.53494 1.94900
C 	C 	0.66984 0.92490 0.27937 -0.19500
C 	C 	0.59391 0.80616 0.26599 0.09200
C 	C 	0.45857 0.27939 0.31404 0.07000
C 	C 	0.42740 0.24324 0.23229 -0.04800
C 	C 	0.08518 0.24904 0.73259 0.13000
C 	C 	0.07594 0.22667 0.81005 -0.16000
C 	C 	0.52046 0.17600 0.71952 0.17900
C 	C 	0.47115 0.08610 0.76436 -0.22500
C 	C 	0.99946 0.44280 0.04753 -0.04800
C 	C 	0.90808 0.38415 0.09574 0.01400
C 	C 	0.77563 0.39882 0.95225 -0.00400
C 	C 	0.19720 0.83492 0.27086 0.08800
C 	C 	0.93735 0.44587 0.97647 -0.04500
C 	C 	0.71684 0.40108 0.88274 -0.09000
C 	C 	0.81619 0.44914 0.83313 0.08500
C 	C 	0.97611 0.50203 0.85660 -0.13700
C 	C 	0.03668 0.50147 0.92875 0.09300
C 	C 	0.76064 0.44659 0.76084 -0.09100
C 	C 	0.86728 0.48932 0.71184 -0.00300
C 	C 	0.02287 0.54578 0.73412 -0.06000
C 	C 	0.07479 0.55691 0.80829 0.11400
C 	C 	0.15999 0.49659 0.07077 0.08100
C 	C 	0.14828 0.85378 0.19551 -0.18100
C 	C 	0.21774 0.49795 0.14361 -0.08500
C 	C 	0.11521 0.44745 0.19299 0.13000
C 	C 	0.96520 0.38593 0.16617 -0.12100
C 	C 	0.21826 0.62467 0.83678 -0.07400
C 	C 	0.27431 0.62763 0.90783 -0.01000
C 	C 	0.19537 0.55742 0.95249 -0.00600
C 	C 	0.26356 0.54775 0.02170 -0.05600
C 	C 	0.43277 0.58241 0.04373 0.09500
C 	C 	0.37928 0.54744 0.16658 0.09200
C 	C 	0.48513 0.58485 0.11528 -0.12400
C 	C 	0.22924 0.78020 0.61102 0.13900
C 	C 	0.43276 0.55405 0.23966 -0.10700
C 	C 	0.32390 0.51395 0.28922 0.04100
C 	C 	0.16738 0.45810 0.26714 -0.10300
C 	C 	0.77004 0.18014 0.52125 0.01000
C 	C 	0.43695 0.80361 0.46308 0.00900
C 	C 	0.40856 0.98158 0.44044 -0.03300
C 	C 	0.34552 0.87256 0.43511 -0.06100
C 	C 	0.58440 0.84483 0.50315 -0.06600
C 	C 	0.64874 0.95741 0.51000 0.01800
C 	C 	0.55967 0.02570 0.47704 0.02400
C 	C 	0.26547 0.90287 0.62208 -0.22500
C 	C 	0.62113 0.13748 0.48385 -0.07300
C 	C 	0.86188 0.11401 0.55112 -0.08600
C 	C 	0.79864 0.00446 0.54852 -0.02100
C 	C 	0.97163 0.20454 0.37522 -0.00600
C 	C 	0.03851 0.09854 0.36239 -0.10200
C 	C 	0.67889 0.73256 0.69433 0.20500
C 	C 	0.59378 0.76956 0.76387 -0.23600
H 	H 	0.52049 0.79146 0.31387 0.01400
H 	H 	0.39556 0.93041 0.63963 0.08800
H 	H 	0.24432 0.93106 0.57046 0.10600
H 	H 	0.18338 0.93881 0.66258 0.10400
H 	H 	0.83740 0.18710 0.38005 0.02600
H 	H 	0.02934 0.25277 0.42669 0.02000
H 	H 	0.98192 0.04679 0.31210 0.04000
H 	H 	0.01366 0.05627 0.40931 0.08400
H 	H 	0.17206 0.11448 0.35462 0.07400
H 	H 	0.61526 0.65080 0.66949 -0.03000
H 	H 	0.73719 0.94431 0.33283 0.08400
H 	H 	0.66364 0.84582 0.79467 0.07800
H 	H 	0.58335 0.70606 0.79873 0.08900
H 	H 	0.47047 0.78613 0.75017 0.09900
H 	H 	0.51268 0.78961 0.21632 0.00900
H 	H 	0.57322 0.97695 0.28046 0.07200
H 	H 	0.34410 0.30286 0.33769 -0.00100
H 	H 	0.55768 0.35070 0.32374 0.00700
H 	H 	0.33027 0.17059 0.22162 0.04700
H 	H 	0.38345 0.30917 0.20891 0.04600
H 	H 	0.75463 0.94210 0.23559 0.07300
H 	H 	0.25944 0.86361 0.16287 0.06400
H 	H 	0.19879 0.30512 0.72735 0.03000
H 	H 	0.98190 0.29088 0.72178 -0.01100
H 	H 	0.08812 0.30391 0.84872 0.08100
H 	H 	0.95653 0.17667 0.81740 0.05000
H 	H 	0.17670 0.18343 0.82267 0.07900
H 	H 	0.45696 0.15228 0.66501 0.00800
H 	H 	0.52660 0.01294 0.74420 0.07500
H 	H 	0.33599 0.06295 0.76219 0.08700
H 	H 	0.23437 0.75328 0.26656 0.02000
H 	H 	0.51376 0.11486 0.82191 0.08300
H 	H 	0.82530 0.48323 0.65601 -0.01600
H 	H 	0.59092 0.36562 0.86948 0.06800
H 	H 	0.88874 0.33811 0.19916 0.08400
H 	H 	0.28586 0.67842 0.80505 0.06600
H 	H 	0.61337 0.61337 0.12935 0.08700
H 	H 	0.36498 0.52108 0.34525 -0.02000
H 	H 	0.68797 0.36167 0.98635 0.03200
H 	H 	0.79134 0.33411 0.08067 0.02700
H 	H 	0.37774 0.68849 0.92739 0.03000
H 	H 	0.30224 0.89883 0.29140 0.00700
H 	H 	0.33446 0.03145 0.41790 0.05800
H 	H 	0.86953 0.95804 0.57637 0.05800
H 	H 	0.81769 0.26544 0.52516 -0.01800
H 	H 	0.38582 0.71888 0.45905 -0.00600
H 	H 	0.09270 0.92894 0.20003 0.08300
H 	H 	0.33547 0.74582 0.58735 -0.02600
H 	H 	0.12218 0.75391 0.57270 -0.01200
O 	O 	0.87309 0.42589 0.32514 -0.36100
O 	O 	0.67642 0.80971 0.64892 -0.26600
O 	O 	0.06671 0.84430 0.31760 -0.20000
O 	O 	0.31661 0.57414 0.67490 -0.34600
O 	O 	0.06729 0.56572 0.58563 -0.49400
O 	O 	0.53021 0.37299 0.63120 -0.35400
O 	O 	0.19724 0.74688 0.67790 -0.24600
O 	O 	0.61134 0.36629 0.46363 -0.48700
O 	O 	0.10855 0.31414 0.59520 -0.35400
O 	O 	0.20347 0.12256 0.55582 -0.20900
O 	O 	0.08175 0.15088 0.68429 -0.22400
O 	O 	0.12242 0.43437 0.41438 -0.50400
O 	O 	0.57837 0.63380 0.53638 -0.51200
O 	O 	0.34151 0.23185 0.46551 -0.32600
O 	O 	0.50337 0.19337 0.34423 -0.23300
O 	O 	0.43579 0.47009 0.75749 -0.21300
O 	O 	0.46769 0.26997 0.75722 -0.24000
O 	O 	0.65950 0.62710 0.36881 -0.34600
O 	O 	0.77130 0.54312 0.24367 -0.20500
O 	O 	0.00279 0.25347 0.31405 -0.19800
O 	O 	0.71893 0.74221 0.25547 -0.21500
O 	O 	0.84820 0.76819 0.53453 -0.35200
O 	O 	0.08116 0.68595 0.40481 -0.33400
O 	O 	0.01518 0.87911 0.45565 -0.18900
P 	P 	0.04104 0.39477 0.33633 0.37300
P 	P 	0.67288 0.75403 0.55610 0.35100
P 	P 	0.13067 0.82322 0.40305 0.31500
P 	P 	0.14867 0.60532 0.66368 0.34700
P 	P 	0.06401 0.17460 0.59497 0.33500
P 	P 	0.64389 0.61390 0.27486 0.31900
P 	P 	0.52132 0.23042 0.43874 0.30400
P 	P 	0.54984 0.38964 0.72597 0.31700
N 	N 	0.84769 0.72688 0.71230 -0.20900
H 	H 	0.90677 0.80382 0.73651 0.08800
H 	H 	0.89955 0.71052 0.66216 0.07100
N 	N 	0.57793 0.21912 0.19749 -0.16400
H 	H 	0.55436 0.20444 0.14133 0.07400
H 	H 	0.60437 0.14666 0.21110 0.08400
N 	N 	0.69819 0.19070 0.71218 -0.20100
H 	H 	0.72518 0.23152 0.66863 0.08500
H 	H 	0.73453 0.11515 0.69588 0.08400
N 	N 	0.56119 0.59991 0.99394 -0.19100
H 	H 	0.53022 0.55444 0.94243 0.09100
H 	H 	0.59219 0.68266 0.99282 0.08100
C 	C 	0.03189 0.76211 0.15725 0.17800
N 	N 	0.94047 0.68994 0.12664 -0.15600
