data_crystal

_cell_length_a 19.61754
_cell_length_b 11.29618
_cell_length_c 18.71403
_cell_angle_alpha 89.90564
_cell_angle_beta  90.17572
_cell_angle_gamma 90.00270

_symmetry_space_group_name_	'P 1'
_symmetry_space_group_name_H-M	'P 1'

loop_
_symmetry_equiv_pos_as_xyz
  x,y,z

loop_
_atom_site_label
_atom_site_type_symbol
_atom_site_fract_x
_atom_site_fract_y
_atom_site_fract_z
_atom_site_charge
C 	C 	0.76128 0.52376 0.63917 0.34700
C 	C 	0.23870 0.52358 0.36087 0.34700
C 	C 	0.26128 0.02375 0.63917 0.37400
C 	C 	0.73870 0.02357 0.36087 0.37300
C 	C 	0.81093 0.13067 0.44913 -0.05000
C 	C 	0.18907 0.13081 0.55070 -0.05000
C 	C 	0.31093 0.63067 0.44914 -0.05100
C 	C 	0.68907 0.63081 0.55070 -0.05100
C 	C 	0.74706 0.05661 0.43680 -0.05000
C 	C 	0.25295 0.05680 0.56322 -0.05100
C 	C 	0.24706 0.55661 0.43680 -0.06200
C 	C 	0.75295 0.55680 0.56322 -0.06300
C 	C 	0.76007 0.09050 0.57421 -0.04100
C 	C 	0.23996 0.09046 0.42578 -0.04100
C 	C 	0.26007 0.59049 0.57422 -0.06300
C 	C 	0.73996 0.59046 0.42578 -0.06300
C 	C 	0.75352 0.95781 0.56206 -0.07200
C 	C 	0.24657 0.95782 0.43823 -0.07200
C 	C 	0.25351 0.45781 0.56206 -0.05000
C 	C 	0.74657 0.45782 0.43823 -0.05000
C 	C 	0.82320 0.13346 0.53011 -0.05700
C 	C 	0.17681 0.13345 0.46973 -0.05700
C 	C 	0.32320 0.63346 0.53011 -0.05300
C 	C 	0.67681 0.63346 0.46973 -0.05300
C 	C 	0.00376 0.20455 0.45916 -0.05800
C 	C 	0.99621 0.20463 0.54115 -0.04600
C 	C 	0.50376 0.70455 0.45916 -0.05200
C 	C 	0.49621 0.70463 0.54114 -0.05200
C 	C 	0.06465 0.40609 0.47443 -0.05300
C 	C 	0.93534 0.40620 0.52543 -0.05400
C 	C 	0.56465 0.90609 0.47443 -0.08600
C 	C 	0.43534 0.90620 0.52543 -0.08600
C 	C 	0.94148 0.39044 0.44440 -0.04900
C 	C 	0.05849 0.39054 0.55551 -0.05300
C 	C 	0.44148 0.89044 0.44440 -0.04400
C 	C 	0.55849 0.89054 0.55550 -0.04400
C 	C 	0.01050 0.33304 0.43097 -0.06100
C 	C 	0.98947 0.33320 0.56905 -0.05900
C 	C 	0.51050 0.83304 0.43097 -0.05700
C 	C 	0.48947 0.83320 0.56905 -0.05700
C 	C 	0.82027 0.03097 0.04817 -0.01900
C 	C 	0.18672 0.01038 0.95603 -0.01900
C 	C 	0.32027 0.53098 0.04818 -0.04900
C 	C 	0.68672 0.51037 0.95603 -0.04900
C 	C 	0.77407 0.12096 0.64947 0.34800
C 	C 	0.22596 0.12084 0.35050 0.34900
C 	C 	0.27406 0.62095 0.64948 0.35100
C 	C 	0.72596 0.62084 0.35050 0.35200
C 	C 	0.82240 0.03611 0.96793 -0.03000
C 	C 	0.18441 0.01640 0.03617 -0.02800
C 	C 	0.32241 0.53612 0.96793 -0.05200
C 	C 	0.68441 0.51641 0.03617 -0.05200
C 	C 	0.69283 0.01303 0.03195 -0.03000
C 	C 	0.31810 0.03396 0.96921 -0.02300
C 	C 	0.19283 0.51303 0.03195 -0.06100
C 	C 	0.81811 0.53396 0.96920 -0.05300
C 	C 	0.74470 0.20507 0.06121 -0.04700
C 	C 	0.24469 0.20027 0.93760 -0.04400
C 	C 	0.24469 0.70507 0.06121 -0.05100
C 	C 	0.74469 0.70026 0.93760 -0.04700
C 	C 	0.74965 0.07325 0.07581 -0.07200
C 	C 	0.25290 0.06823 0.92575 -0.07700
C 	C 	0.24965 0.57326 0.07581 -0.05600
C 	C 	0.75290 0.56823 0.92575 -0.06100
C 	C 	0.76068 0.10605 0.93657 -0.06400
C 	C 	0.24010 0.10226 0.06447 -0.06200
C 	C 	0.26068 0.60606 0.93657 -0.05700
C 	C 	0.74010 0.60225 0.06447 -0.05300
C 	C 	0.69913 0.02722 0.94971 -0.02500
C 	C 	0.30870 0.04431 0.05112 -0.02800
C 	C 	0.19913 0.52723 0.94971 -0.05000
C 	C 	0.80870 0.54430 0.05112 -0.05200
C 	C 	0.74528 0.22248 0.97897 -0.05600
C 	C 	0.23866 0.21769 0.01949 -0.06400
C 	C 	0.24528 0.72248 0.97898 -0.05500
C 	C 	0.73867 0.71768 0.01949 -0.06400
C 	C 	0.99472 0.47957 0.04228 -0.04500
C 	C 	0.99189 0.47963 0.96140 -0.04900
C 	C 	0.49473 0.97958 0.04228 -0.09700
C 	C 	0.49190 0.97964 0.96139 -0.09700
C 	C 	0.06720 0.29634 0.02710 -0.06000
C 	C 	0.93728 0.27022 0.97340 -0.05500
C 	C 	0.56719 0.79632 0.02711 -0.06300
C 	C 	0.43728 0.77024 0.97339 -0.05600
C 	C 	0.94532 0.27884 0.05530 -0.04800
C 	C 	0.05778 0.29773 0.94507 -0.05100
C 	C 	0.44531 0.77887 0.05530 -0.05300
C 	C 	0.55779 0.79773 0.94507 -0.05000
C 	C 	0.96911 0.34219 0.64497 0.34700
C 	C 	0.03087 0.34209 0.35503 0.34600
C 	C 	0.46911 0.84218 0.64497 0.34600
C 	C 	0.53087 0.84209 0.35503 0.34500
C 	C 	0.00842 0.35217 0.07020 -0.06200
C 	C 	0.98801 0.35115 0.93131 -0.05900
C 	C 	0.50842 0.85217 0.07020 -0.04900
C 	C 	0.48801 0.85116 0.93131 -0.05300
C 	C 	0.76091 0.53268 0.84931 0.34400
C 	C 	0.24041 0.53656 0.15225 0.33900
C 	C 	0.26091 0.03268 0.84931 0.37900
C 	C 	0.74041 0.03656 0.15225 0.37400
C 	C 	0.77444 0.13337 0.85923 0.34300
C 	C 	0.22600 0.13190 0.14139 0.34100
C 	C 	0.27444 0.63337 0.85923 0.33700
C 	C 	0.72600 0.63190 0.14139 0.33500
C 	C 	0.96768 0.35326 0.85454 0.34700
C 	C 	0.03032 0.35331 0.14669 0.34500
C 	C 	0.46769 0.85326 0.85453 0.34300
C 	C 	0.53032 0.85332 0.14669 0.34000
C 	C 	0.68726 0.13238 0.46516 -0.05000
C 	C 	0.31277 0.13254 0.53474 -0.05000
C 	C 	0.18726 0.63238 0.46516 -0.05100
C 	C 	0.81277 0.63254 0.53474 -0.05100
C 	C 	0.69238 0.14510 0.54635 -0.05400
C 	C 	0.30763 0.14523 0.45353 -0.05400
C 	C 	0.19238 0.64509 0.54635 -0.05000
C 	C 	0.80763 0.64523 0.45353 -0.04900
C 	C 	0.75659 0.93888 0.48078 -0.07000
C 	C 	0.24344 0.93900 0.51953 -0.07000
C 	C 	0.25659 0.43887 0.48077 -0.05400
C 	C 	0.74343 0.43900 0.51954 -0.05400
Cr	Cr	0.88569 0.49286 0.74531 1.51300
Cr	Cr	0.11431 0.49286 0.25469 1.51300
Cr	Cr	0.38569 0.99286 0.74531 1.50500
Cr	Cr	0.61431 0.99286 0.25469 1.50500
Cr	Cr	0.72988 0.33227 0.74819 1.51400
Cr	Cr	0.27012 0.33227 0.25181 1.51400
Cr	Cr	0.22988 0.83227 0.74819 1.51200
Cr	Cr	0.77012 0.83227 0.25181 1.51300
Cr	Cr	0.88812 0.17859 0.75301 1.51500
Cr	Cr	0.11188 0.17859 0.24699 1.51500
Cr	Cr	0.38812 0.67859 0.75301 1.51400
Cr	Cr	0.61188 0.67859 0.24699 1.51400
H 	H 	0.63814 0.09638 0.44984 0.04200
H 	H 	0.36189 0.09653 0.55014 0.04200
H 	H 	0.13814 0.59638 0.44984 0.03700
H 	H 	0.86189 0.59653 0.55014 0.03700
H 	H 	0.86378 0.06751 0.54053 0.04700
H 	H 	0.13626 0.06742 0.45944 0.04700
H 	H 	0.36378 0.56750 0.54053 0.04000
H 	H 	0.63626 0.56743 0.45944 0.04000
H 	H 	0.80923 0.90878 0.47006 0.03700
H 	H 	0.19077 0.90899 0.53029 0.03700
H 	H 	0.30924 0.40879 0.47006 0.04000
H 	H 	0.69077 0.40900 0.53029 0.04000
H 	H 	0.79583 0.90994 0.58912 0.03200
H 	H 	0.20432 0.90986 0.41123 0.03200
H 	H 	0.29582 0.40993 0.58913 0.03500
H 	H 	0.70432 0.40987 0.41123 0.03500
H 	H 	0.04613 0.14986 0.44231 0.04100
H 	H 	0.95383 0.14994 0.55814 0.03900
H 	H 	0.54613 0.64987 0.44230 0.03800
H 	H 	0.45383 0.64994 0.55814 0.03800
H 	H 	0.95901 0.16101 0.43459 0.03700
H 	H 	0.04095 0.16113 0.56583 0.03200
H 	H 	0.45901 0.66101 0.43459 0.03200
H 	H 	0.54095 0.66113 0.56583 0.03200
H 	H 	0.61663 0.89146 0.45595 0.03800
H 	H 	0.38336 0.89159 0.54396 0.03800
H 	H 	0.11663 0.39146 0.45595 0.03600
H 	H 	0.88336 0.39159 0.54396 0.03600
H 	H 	0.60032 0.83512 0.57693 0.02800
H 	H 	0.39964 0.83496 0.42315 0.02800
H 	H 	0.10032 0.33513 0.57693 0.03100
H 	H 	0.89964 0.33496 0.42315 0.03100
H 	H 	0.93830 0.47769 0.41723 0.03500
H 	H 	0.06162 0.47786 0.58243 0.03500
H 	H 	0.43830 0.97769 0.41723 0.02400
H 	H 	0.56162 0.97786 0.58243 0.02400
H 	H 	0.83360 0.93916 0.06357 0.01800
H 	H 	0.17949 0.91897 0.93961 0.01900
H 	H 	0.33360 0.43917 0.06357 0.03900
H 	H 	0.67951 0.41895 0.93962 0.04000
H 	H 	0.68788 0.22103 0.43998 0.03200
H 	H 	0.31214 0.22120 0.55974 0.03200
H 	H 	0.18788 0.72103 0.43998 0.03000
H 	H 	0.81214 0.72120 0.55974 0.03000
H 	H 	0.86056 0.08669 0.07173 0.03200
H 	H 	0.14132 0.05638 0.93352 0.03300
H 	H 	0.36056 0.58670 0.07173 0.03400
H 	H 	0.64133 0.55635 0.93351 0.03500
H 	H 	0.87152 0.07034 0.95170 0.03900
H 	H 	0.13187 0.04169 0.05090 0.03800
H 	H 	0.37152 0.57034 0.95170 0.04000
H 	H 	0.63187 0.54174 0.05089 0.03900
H 	H 	0.82234 0.94442 0.94629 0.01500
H 	H 	0.19224 0.92786 0.05965 0.01500
H 	H 	0.32234 0.44442 0.94629 0.03600
H 	H 	0.69222 0.42788 0.05966 0.03600
H 	H 	0.70039 0.92265 0.04611 0.01700
H 	H 	0.33863 0.94837 0.95354 0.01300
H 	H 	0.20040 0.42265 0.04611 0.03800
H 	H 	0.83864 0.44838 0.95352 0.03600
H 	H 	0.70580 0.94022 0.92339 0.01100
H 	H 	0.31127 0.95615 0.07700 0.01100
H 	H 	0.20579 0.44022 0.92339 0.03100
H 	H 	0.81125 0.45614 0.07699 0.03200
H 	H 	0.69642 0.23881 0.08446 0.03100
H 	H 	0.28898 0.25018 0.91614 0.03000
H 	H 	0.19640 0.73880 0.08446 0.02900
H 	H 	0.78898 0.75018 0.91612 0.02800
H 	H 	0.78760 0.25290 0.08679 0.03000
H 	H 	0.19873 0.23354 0.90916 0.02900
H 	H 	0.28758 0.75292 0.08681 0.02900
H 	H 	0.69873 0.73353 0.90917 0.02800
H 	H 	0.77803 0.29574 0.96335 0.03600
H 	H 	0.18884 0.24962 0.02837 0.03900
H 	H 	0.27806 0.79571 0.96338 0.03400
H 	H 	0.68886 0.74963 0.02838 0.03900
H 	H 	0.69260 0.24699 0.96432 0.03700
H 	H 	0.27835 0.27938 0.03841 0.04100
H 	H 	0.19263 0.74703 0.96431 0.03600
H 	H 	0.77837 0.77936 0.03840 0.04000
H 	H 	0.64251 0.04517 0.04958 0.03900
H 	H 	0.35655 0.10104 0.95474 0.03200
H 	H 	0.14252 0.54517 0.04959 0.04100
H 	H 	0.85654 0.60106 0.95474 0.03700
H 	H 	0.68686 0.23724 0.56207 0.04000
H 	H 	0.31307 0.23743 0.43764 0.04000
H 	H 	0.18686 0.73724 0.56208 0.03700
H 	H 	0.81307 0.73742 0.43764 0.03700
H 	H 	0.65225 0.06775 0.92698 0.03000
H 	H 	0.34906 0.10122 0.07468 0.03000
H 	H 	0.15225 0.56776 0.92698 0.03000
H 	H 	0.84905 0.60118 0.07469 0.03200
H 	H 	0.03374 0.54462 0.05889 0.03400
H 	H 	0.95078 0.53624 0.94315 0.03800
H 	H 	0.53376 0.04462 0.05889 0.06300
H 	H 	0.45079 0.03625 0.94315 0.06600
H 	H 	0.94643 0.51238 0.06471 0.03300
H 	H 	0.03808 0.52451 0.94031 0.03200
H 	H 	0.44645 0.01241 0.06471 0.06200
H 	H 	0.53809 0.02452 0.94031 0.06000
H 	H 	0.60805 0.85346 0.04017 0.03600
H 	H 	0.38454 0.78156 0.95635 0.03600
H 	H 	0.10805 0.35351 0.04015 0.03900
H 	H 	0.88454 0.28156 0.95638 0.03600
H 	H 	0.95276 0.18950 0.07887 0.03500
H 	H 	0.06108 0.20658 0.92314 0.03300
H 	H 	0.45273 0.68953 0.07888 0.03300
H 	H 	0.56109 0.70658 0.92313 0.03100
H 	H 	0.95192 0.17888 0.95920 0.04100
H 	H 	0.07687 0.20496 0.04541 0.04300
H 	H 	0.45193 0.67888 0.95921 0.03900
H 	H 	0.57684 0.70494 0.04541 0.04300
H 	H 	0.64841 0.10089 0.57193 0.04000
H 	H 	0.35165 0.10113 0.42805 0.04000
H 	H 	0.14840 0.60089 0.57193 0.03000
H 	H 	0.85165 0.60111 0.42805 0.03000
H 	H 	0.72234 0.86832 0.46380 0.03700
H 	H 	0.27762 0.86843 0.53676 0.03700
H 	H 	0.22235 0.36831 0.46378 0.03600
H 	H 	0.77762 0.36843 0.53676 0.03600
H 	H 	0.70519 0.92371 0.58457 0.03000
H 	H 	0.29494 0.92381 0.41588 0.02900
H 	H 	0.20518 0.42371 0.58456 0.03100
H 	H 	0.79493 0.42381 0.41588 0.03100
H 	H 	0.85523 0.09016 0.42170 0.04200
H 	H 	0.14477 0.09030 0.57823 0.04100
H 	H 	0.35523 0.59017 0.42170 0.03600
H 	H 	0.64477 0.59031 0.57823 0.03600
H 	H 	0.80441 0.22112 0.42740 0.03100
H 	H 	0.19557 0.22129 0.57220 0.03100
H 	H 	0.30441 0.72112 0.42741 0.03000
H 	H 	0.69557 0.72130 0.57220 0.03100
H 	H 	0.84219 0.21943 0.54787 0.03700
H 	H 	0.15782 0.21938 0.45169 0.03700
H 	H 	0.34219 0.71942 0.54788 0.03600
H 	H 	0.65782 0.71939 0.45169 0.03600
O 	O 	0.95721 0.44941 0.66548 -0.47100
O 	O 	0.04279 0.44941 0.33452 -0.47300
O 	O 	0.45721 0.94941 0.66548 -0.48100
O 	O 	0.54279 0.94941 0.33452 -0.48100
O 	O 	0.73626 0.21201 0.82656 -0.50000
O 	O 	0.26374 0.21201 0.17344 -0.49900
O 	O 	0.23626 0.71201 0.82656 -0.50200
O 	O 	0.76374 0.71201 0.17344 -0.50000
O 	O 	0.83252 0.09530 0.83600 -0.46100
O 	O 	0.16748 0.09530 0.16400 -0.46100
O 	O 	0.33252 0.59530 0.83600 -0.46600
O 	O 	0.66748 0.59530 0.16400 -0.46500
O 	O 	0.94638 0.25394 0.82694 -0.50800
O 	O 	0.05362 0.25394 0.17306 -0.50800
O 	O 	0.44638 0.75394 0.82694 -0.51000
O 	O 	0.55362 0.75394 0.17306 -0.50900
O 	O 	0.83456 0.33457 0.74884 -0.71800
O 	O 	0.16544 0.33457 0.25116 -0.71700
O 	O 	0.33456 0.83457 0.74884 -0.72200
O 	O 	0.66544 0.83457 0.25116 -0.72200
O 	O 	0.82073 0.54124 0.66825 -0.50900
O 	O 	0.17927 0.54124 0.33175 -0.50900
O 	O 	0.32073 0.04124 0.66825 -0.50000
O 	O 	0.67927 0.04124 0.33175 -0.50000
O 	O 	0.71424 0.45506 0.66371 -0.46900
O 	O 	0.28576 0.45506 0.33629 -0.46800
O 	O 	0.21424 0.95506 0.66371 -0.49400
O 	O 	0.78576 0.95506 0.33629 -0.49400
O 	O 	0.73678 0.20487 0.67591 -0.51000
O 	O 	0.26322 0.20487 0.32409 -0.51200
O 	O 	0.23678 0.70487 0.67591 -0.51400
O 	O 	0.76322 0.70487 0.32409 -0.51500
O 	O 	0.83307 0.08759 0.67349 -0.46500
O 	O 	0.16693 0.08759 0.32651 -0.46700
O 	O 	0.33307 0.58759 0.67349 -0.47300
O 	O 	0.66693 0.58759 0.32651 -0.47400
O 	O 	0.94689 0.24680 0.67630 -0.50500
O 	O 	0.05311 0.24680 0.32370 -0.50500
O 	O 	0.44689 0.74680 0.67630 -0.50700
O 	O 	0.55311 0.74680 0.32370 -0.50700
O 	O 	0.95665 0.45712 0.82798 -0.47100
O 	O 	0.04335 0.45712 0.17202 -0.47200
O 	O 	0.45665 0.95712 0.82798 -0.48100
O 	O 	0.54335 0.95712 0.17202 -0.48100
O 	O 	0.82022 0.54839 0.81889 -0.50900
O 	O 	0.17978 0.54839 0.18111 -0.50800
O 	O 	0.32022 0.04839 0.81889 -0.50200
O 	O 	0.67978 0.04839 0.18111 -0.50100
O 	O 	0.71368 0.46277 0.82621 -0.47300
O 	O 	0.28632 0.46277 0.17379 -0.47300
O 	O 	0.21368 0.96277 0.82621 -0.50100
O 	O 	0.78632 0.96277 0.17379 -0.50000
H 	H 	0.94770 0.50031 0.53557 0.04100
H 	H 	0.05228 0.50018 0.46404 0.04000
H 	H 	0.44770 0.00031 0.53557 0.06700
H 	H 	0.55228 0.00018 0.46404 0.06700
H 	H 	0.59813 0.85067 0.91864 0.02600
H 	H 	0.39975 0.81957 0.07995 0.02800
H 	H 	0.09812 0.35066 0.91863 0.03000
H 	H 	0.89976 0.31952 0.07997 0.03100
