data_crystal

_cell_length_a 7.86522
_cell_length_b 8.56843
_cell_length_c 12.49204
_cell_angle_alpha 92.54960
_cell_angle_beta  102.98851
_cell_angle_gamma 93.85436

_symmetry_space_group_name_	'P 1'
_symmetry_space_group_name_H-M	'P 1'

loop_
_symmetry_equiv_pos_as_xyz
  x,y,z

loop_
_atom_site_label
_atom_site_type_symbol
_atom_site_fract_x
_atom_site_fract_y
_atom_site_fract_z
_atom_site_charge
C 	C 	0.04424 0.79435 0.49744 0.37900
C 	C 	0.41590 0.56318 0.98722 -0.02900
C 	C 	0.36250 0.57785 0.87338 0.02800
C 	C 	0.58675 0.51819 0.02593 -0.02000
C 	C 	0.67548 0.44882 0.95156 0.05700
C 	C 	0.62810 0.48295 0.84172 -0.10100
C 	C 	0.49235 0.58018 0.81141 0.07600
C 	C 	0.67667 0.54880 0.13345 0.01000
C 	C 	0.89033 0.37058 0.10472 0.03000
C 	C 	0.18337 0.58095 0.82512 -0.10900
C 	C 	0.06749 0.95809 0.49649 -0.12200
C 	C 	0.11349 0.52990 0.70806 0.34600
C 	C 	0.93333 0.04202 0.50499 -0.10700
C 	C 	0.95602 0.20570 0.50303 0.37000
C 	C 	0.88931 0.48475 0.29162 0.35600
C 	C 	0.82215 0.36669 0.99149 -0.08400
C 	C 	0.82352 0.47062 0.17434 -0.11600
C 	C 	0.07207 0.62691 0.89177 0.03500
C 	C 	0.12963 0.63483 0.00600 -0.09400
C 	C 	0.29412 0.58546 0.05449 0.07700
H 	H 	0.99588 0.29974 0.13681 0.02500
H 	H 	0.80669 0.99113 0.51308 0.08200
H 	H 	0.47054 0.35724 0.43515 0.07000
H 	H 	0.52911 0.65076 0.55063 0.07500
H 	H 	0.71166 0.45702 0.78631 0.06600
H 	H 	0.88571 0.30446 0.93597 0.05500
H 	H 	0.63086 0.63117 0.18676 0.04800
H 	H 	0.93921 0.65147 0.85591 0.02700
H 	H 	0.03923 0.66384 0.05621 0.06100
H 	H 	0.19425 0.00896 0.48860 0.08900
N 	N 	0.43480 0.45669 0.47085 -0.22800
N 	N 	0.56520 0.54331 0.52915 -0.22900
O 	O 	0.89306 0.73888 0.50715 -0.46400
O 	O 	0.17225 0.71113 0.48847 -0.45900
O 	O 	0.94470 0.52073 0.66760 -0.45000
O 	O 	0.22389 0.49298 0.64892 -0.43400
O 	O 	0.82775 0.28887 0.51153 -0.45500
O 	O 	0.10694 0.26112 0.49285 -0.45400
O 	O 	0.77611 0.50702 0.35108 -0.44900
O 	O 	0.05530 0.47927 0.33240 -0.45200
Zn	Zn	0.81358 0.51853 0.51247 1.23000
Zn	Zn	0.18642 0.48147 0.48753 1.23100
N 	N 	0.32817 0.54672 0.16689 -0.14400
H 	H 	0.25570 0.60164 0.21444 0.09100
C 	C 	0.34665 0.38196 0.18675 -0.09100
H 	H 	0.48296 0.36476 0.22884 0.06200
H 	H 	0.31062 0.30615 0.10915 0.05400
H 	H 	0.26423 0.34170 0.24272 0.05200
N 	N 	0.50877 0.69935 0.73708 -0.13900
H 	H 	0.63432 0.71602 0.72526 0.07500
C 	C 	0.43772 0.84798 0.75398 -0.08800
H 	H 	0.29298 0.83406 0.73818 0.05900
H 	H 	0.47187 0.93129 0.69498 0.05100
H 	H 	0.49355 0.89872 0.83910 0.05100
