data_crystal

_cell_length_a 10.73803
_cell_length_b 8.68855
_cell_length_c 7.49186
_cell_angle_alpha 102.50789
_cell_angle_beta  93.64627
_cell_angle_gamma 92.10402

_symmetry_space_group_name_	'P 1'
_symmetry_space_group_name_H-M	'P 1'

loop_
_symmetry_equiv_pos_as_xyz
  x,y,z

loop_
_atom_site_label
_atom_site_type_symbol
_atom_site_fract_x
_atom_site_fract_y
_atom_site_fract_z
_atom_site_charge
C 	C 	0.49654 0.20009 0.45378 0.33100
C 	C 	0.50960 0.79949 0.54500 0.32600
C 	C 	0.73672 0.49662 0.49575 0.31600
C 	C 	0.12795 0.80583 0.66463 -0.07300
C 	C 	0.06593 0.94588 0.66765 0.00800
C 	C 	0.94056 0.94058 0.60743 -0.02100
C 	C 	0.87450 0.79586 0.55139 -0.03800
C 	C 	0.93634 0.65364 0.53773 0.03700
C 	C 	0.23638 0.81773 0.79847 0.28700
C 	C 	0.40456 0.31550 0.93591 0.33700
C 	C 	0.06716 0.65817 0.57540 0.06200
C 	C 	0.12918 0.51504 0.51897 -0.08100
C 	C 	0.06082 0.37146 0.45501 0.00300
C 	C 	0.93180 0.36643 0.44667 0.00000
C 	C 	0.87007 0.50638 0.48831 -0.08100
C 	C 	0.49010 0.03210 0.42827 -0.10500
C 	C 	0.52592 0.96638 0.56586 -0.07100
C 	C 	0.26322 0.51065 0.50593 0.31900
Cu	Cu	0.51392 0.51738 0.68438 0.92500
Cu	Cu	0.48608 0.48262 0.31562 0.92300
H 	H 	0.10790 0.26243 0.41414 0.04600
H 	H 	0.23917 0.41443 0.91717 0.18500
H 	H 	0.58315 0.63652 0.05075 0.07300
H 	H 	0.31581 0.74304 0.01374 0.13900
H 	H 	0.11162 0.05960 0.73081 0.06100
H 	H 	0.89250 0.04898 0.61563 0.04300
H 	H 	0.77542 0.79598 0.51509 0.05600
H 	H 	0.87983 0.25356 0.40601 0.03900
H 	H 	0.45239 0.96215 0.29611 0.09500
H 	H 	0.56897 0.03510 0.69441 0.10200
N 	N 	0.46510 0.45643 0.03852 -0.21300
N 	N 	0.53490 0.54357 0.96148 -0.14400
O 	O 	0.50905 0.28613 0.61977 -0.36100
O 	O 	0.24008 0.71843 0.92243 -0.26000
O 	O 	0.45739 0.19276 0.92533 -0.19700
O 	O 	0.27880 0.31018 0.87395 -0.29000
O 	O 	0.48554 0.25678 0.30836 -0.37000
O 	O 	0.33141 0.51468 0.65574 -0.36000
O 	O 	0.30790 0.48533 0.34433 -0.37200
O 	O 	0.51446 0.74322 0.69164 -0.35900
O 	O 	0.49095 0.71387 0.38023 -0.38200
O 	O 	0.69210 0.51467 0.65567 -0.36500
O 	O 	0.66859 0.48532 0.34426 -0.37700
O 	O 	0.31566 0.92476 0.81399 -0.19300
