data_crystal

_cell_length_a 8.24936
_cell_length_b 14.44554
_cell_length_c 14.98494
_cell_angle_alpha 96.60191
_cell_angle_beta  97.35434
_cell_angle_gamma 91.77279

_symmetry_space_group_name_	'P 1'
_symmetry_space_group_name_H-M	'P 1'

loop_
_symmetry_equiv_pos_as_xyz
  x,y,z

loop_
_atom_site_label
_atom_site_type_symbol
_atom_site_fract_x
_atom_site_fract_y
_atom_site_fract_z
_atom_site_charge
Ba	Ba	0.83340 0.54331 0.45352 1.90400
Ba	Ba	0.35642 0.45677 0.54648 1.93900
C 	C 	0.58320 0.86443 0.14956 -0.19700
C 	C 	0.91841 0.44038 0.92469 -0.00600
C 	C 	0.04915 0.45974 0.11219 0.09100
C 	C 	0.04530 0.73777 0.20022 0.13400
C 	C 	0.90445 0.40602 0.07953 -0.09600
C 	C 	0.83938 0.39764 0.98816 -0.00100
C 	C 	0.11338 0.47311 0.20637 -0.08900
C 	C 	0.26155 0.52459 0.23274 0.02700
C 	C 	0.08325 0.52668 0.79703 -0.01700
C 	C 	0.14198 0.54429 0.89264 0.04100
C 	C 	0.06622 0.49372 0.95461 0.04100
C 	C 	0.52021 0.77771 0.18563 0.10000
C 	C 	0.27439 0.60788 0.93054 -0.02500
C 	C 	0.36161 0.59382 0.01379 -0.05800
C 	C 	0.28515 0.54972 0.07679 0.05700
C 	C 	0.02648 0.76508 0.10458 -0.18700
C 	C 	0.13262 0.50168 0.04818 -0.06400
C 	C 	0.35115 0.55903 0.16908 -0.09400
C 	C 	0.95241 0.46081 0.76957 -0.01500
C 	C 	0.70748 0.93558 0.53909 -0.03500
C 	C 	0.51251 0.79609 0.49319 -0.06200
C 	C 	0.35780 0.76253 0.44946 0.01400
C 	C 	0.45438 0.33013 0.27692 0.12700
C 	C 	0.24172 0.82469 0.41986 -0.06000
C 	C 	0.28303 0.91843 0.42588 -0.01700
C 	C 	0.44522 0.95099 0.45226 0.04100
C 	C 	0.55715 0.89337 0.49587 0.04200
C 	C 	0.19939 0.74193 0.63773 0.14300
C 	C 	0.64253 0.08450 0.47949 0.05700
C 	C 	0.74957 0.02993 0.53291 -0.00700
C 	C 	0.68645 0.18236 0.48287 -0.07100
C 	C 	0.83501 0.21897 0.53235 0.00800
C 	C 	0.94622 0.16248 0.57487 -0.07200
C 	C 	0.42149 0.30689 0.17426 -0.20400
C 	C 	0.90207 0.06872 0.57709 -0.02200
C 	C 	0.49681 0.03787 0.42968 -0.07200
C 	C 	0.18071 0.84775 0.65218 -0.23900
C 	C 	0.96585 0.25250 0.34297 0.09900
C 	C 	0.91267 0.15196 0.30691 -0.23100
C 	C 	0.77265 0.75968 0.73258 0.04700
C 	C 	0.79586 0.85017 0.79737 -0.17400
C 	C 	0.32943 0.89885 0.70540 0.33900
C 	C 	0.28080 0.70696 0.91249 0.29400
C 	C 	0.16618 0.25679 0.79935 0.09400
C 	C 	0.20566 0.22983 0.89465 -0.19400
C 	C 	0.66171 0.20853 0.75948 0.08800
C 	C 	0.73188 0.13450 0.81573 -0.19200
C 	C 	0.85548 0.42994 0.83187 -0.04000
H 	H 	0.50323 0.79527 0.25804 0.03000
H 	H 	0.68803 0.89853 0.19713 0.09900
H 	H 	0.82588 0.90898 0.75985 0.06500
H 	H 	0.89456 0.84615 0.85357 0.07700
H 	H 	0.68231 0.86526 0.82769 0.10200
H 	H 	0.40117 0.75441 0.14470 0.01300
H 	H 	0.48513 0.91441 0.14065 0.09200
H 	H 	0.33720 0.34286 0.30385 -0.00700
H 	H 	0.53710 0.39355 0.29323 -0.02000
H 	H 	0.33339 0.24586 0.15617 0.09200
H 	H 	0.36996 0.36644 0.14202 0.07900
H 	H 	0.15627 0.87439 0.58561 0.10400
H 	H 	0.53747 0.29003 0.14692 0.08800
H 	H 	0.62376 0.84523 0.08229 0.09400
H 	H 	0.10008 0.83036 0.10279 0.08400
H 	H 	0.23817 0.32229 0.79572 0.03500
H 	H 	0.03345 0.26871 0.78719 0.01800
H 	H 	0.33866 0.21925 0.90977 0.09200
H 	H 	0.17148 0.28614 0.94478 0.07800
H 	H 	0.13635 0.16429 0.90092 0.08100
H 	H 	0.76221 0.23643 0.72577 0.01100
H 	H 	0.56569 0.17537 0.70557 0.03800
H 	H 	0.07389 0.86399 0.68813 0.10400
H 	H 	0.78997 0.08133 0.77221 0.06100
H 	H 	0.63323 0.10008 0.84583 0.07900
H 	H 	0.97477 0.67063 0.19883 0.01500
H 	H 	0.82564 0.16715 0.87111 0.06900
H 	H 	0.83908 0.36942 0.12376 0.07600
H 	H 	0.72749 0.35553 0.96790 0.04800
H 	H 	0.47557 0.63338 0.03491 0.07600
H 	H 	0.31318 0.53263 0.30343 -0.01200
H 	H 	0.91181 0.44311 0.69784 0.01500
H 	H 	0.32295 0.68919 0.44542 -0.01000
H 	H 	0.86294 0.28705 0.37130 -0.01300
H 	H 	0.19011 0.96530 0.40355 0.06600
H 	H 	0.98697 0.02604 0.61347 0.03400
H 	H 	0.17716 0.72835 0.22189 0.00800
H 	H 	0.86775 0.29251 0.53519 -0.01200
H 	H 	0.79292 0.89641 0.57879 0.06100
H 	H 	0.06938 0.70869 0.05794 0.09000
H 	H 	0.89605 0.77573 0.08109 0.08600
H 	H 	0.31712 0.72572 0.61369 -0.00800
H 	H 	0.09839 0.71271 0.58523 -0.02400
H 	H 	0.51461 0.99351 0.70774 0.16200
H 	H 	0.07292 0.25408 0.39626 0.01900
H 	H 	0.61657 0.56036 0.68639 0.11400
H 	H 	0.15824 0.81813 0.87944 0.17100
H 	H 	0.24204 0.98787 0.20782 0.15700
H 	H 	0.80720 0.15220 0.25344 0.10900
H 	H 	0.88084 0.11235 0.36168 0.09300
H 	H 	0.00988 0.11581 0.27439 0.11700
H 	H 	0.88281 0.74778 0.69869 0.02900
O 	O 	0.84123 0.44416 0.28043 -0.35200
O 	O 	0.28357 0.16951 0.57390 -0.19000
O 	O 	0.20793 0.18459 0.73647 -0.21000
O 	O 	0.11286 0.44735 0.39371 -0.50500
O 	O 	0.56061 0.61373 0.54077 -0.51100
O 	O 	0.38746 0.27029 0.46721 -0.31400
O 	O 	0.52775 0.25372 0.31193 -0.21500
O 	O 	0.51616 0.45119 0.83212 -0.18600
O 	O 	0.59035 0.27605 0.81600 -0.22000
O 	O 	0.59794 0.61570 0.32769 -0.33700
O 	O 	0.68018 0.53364 0.17526 -0.20500
O 	O 	0.63075 0.76573 0.67304 -0.21400
O 	O 	0.00757 0.29558 0.27012 -0.22200
O 	O 	0.63546 0.70916 0.17642 -0.21600
O 	O 	0.80224 0.72974 0.53285 -0.35300
O 	O 	0.01718 0.66479 0.37108 -0.34400
O 	O 	0.90319 0.82891 0.42202 -0.21800
O 	O 	0.37348 0.88401 0.78322 -0.24000
O 	O 	0.41427 0.96538 0.66640 -0.30900
O 	O 	0.85703 0.65771 0.87160 -0.20200
O 	O 	0.56822 0.67151 0.82129 -0.16900
O 	O 	0.73156 0.57302 0.71224 -0.31800
O 	O 	0.98422 0.80779 0.25825 -0.23600
O 	O 	0.40594 0.75597 0.93657 -0.21400
O 	O 	0.13813 0.74904 0.88228 -0.28200
O 	O 	0.29687 0.13559 0.32303 -0.20800
O 	O 	0.54926 0.08191 0.26512 -0.22300
O 	O 	0.31045 0.96410 0.25877 -0.29700
O 	O 	0.34848 0.55587 0.71962 -0.32700
O 	O 	0.07683 0.55273 0.60630 -0.49400
O 	O 	0.59176 0.38438 0.67232 -0.33300
O 	O 	0.19304 0.70546 0.71991 -0.20900
O 	O 	0.62909 0.38635 0.45924 -0.49000
O 	O 	0.17252 0.33529 0.62892 -0.34900
P 	P 	0.01860 0.41679 0.29597 0.35400
P 	P 	0.63566 0.71653 0.56090 0.35500
P 	P 	0.03572 0.78365 0.36987 0.34300
P 	P 	0.17109 0.58329 0.70403 0.34500
P 	P 	0.15021 0.21344 0.62677 0.31900
P 	P 	0.56211 0.60565 0.21029 0.31600
P 	P 	0.55821 0.27012 0.43035 0.31800
P 	P 	0.64012 0.38724 0.78929 0.31500
S 	S 	0.73306 0.66468 0.79081 0.36400
S 	S 	0.41415 0.05871 0.31773 0.37200
