data_crystal

_cell_length_a 7.77260
_cell_length_b 8.55151
_cell_length_c 14.87391
_cell_angle_alpha 91.11088
_cell_angle_beta  85.93792
_cell_angle_gamma 93.57809

_symmetry_space_group_name_	'P 1'
_symmetry_space_group_name_H-M	'P 1'

loop_
_symmetry_equiv_pos_as_xyz
  x,y,z

loop_
_atom_site_label
_atom_site_type_symbol
_atom_site_fract_x
_atom_site_fract_y
_atom_site_fract_z
_atom_site_charge
C 	C 	0.54570 0.79467 0.49767 0.38700
C 	C 	0.60218 0.61573 0.81085 0.02700
C 	C 	0.49346 0.50258 0.23212 -0.10200
C 	C 	0.50654 0.49742 0.76788 -0.10200
C 	C 	0.59043 0.62011 0.18482 -0.00900
C 	C 	0.40955 0.37990 0.81518 -0.00900
C 	C 	0.59175 0.62127 0.09184 0.03300
C 	C 	0.40824 0.37874 0.90816 0.03300
C 	C 	0.49795 0.50046 0.04683 0.00400
C 	C 	0.50205 0.49955 0.95317 0.00400
C 	C 	0.40121 0.38006 0.09569 -0.05000
C 	C 	0.45430 0.20533 0.50233 0.38800
C 	C 	0.59880 0.61994 0.90431 -0.05000
C 	C 	0.68604 0.74061 0.04359 -0.11200
C 	C 	0.31395 0.25940 0.95640 -0.11200
C 	C 	0.69165 0.99744 0.90858 -0.02200
C 	C 	0.30856 0.00262 0.09149 -0.02200
C 	C 	0.68724 0.74283 0.94977 0.13900
C 	C 	0.31278 0.25716 0.05022 0.13900
C 	C 	0.56984 0.95815 0.49631 -0.11500
C 	C 	0.43016 0.04185 0.50369 -0.11500
C 	C 	0.50223 0.49969 0.67280 0.36800
C 	C 	0.49777 0.50031 0.32720 0.36800
C 	C 	0.39784 0.38427 0.18915 0.02800
H 	H 	0.32559 0.29400 0.22888 0.04400
H 	H 	0.98632 0.61750 0.56805 0.07900
H 	H 	0.68195 0.04466 0.97886 0.04000
H 	H 	0.56061 0.97737 0.88306 0.04000
H 	H 	0.76336 0.08814 0.86587 0.04900
H 	H 	0.43942 0.02280 0.11719 0.04000
H 	H 	0.23676 0.91183 0.13409 0.04900
H 	H 	0.31864 0.95547 0.02122 0.04000
H 	H 	0.67443 0.70599 0.77112 0.04400
H 	H 	0.66337 0.71066 0.22075 0.04400
H 	H 	0.33660 0.28935 0.77925 0.04400
H 	H 	0.75863 0.83240 0.07856 0.06900
H 	H 	0.24136 0.16760 0.92144 0.06900
H 	H 	0.70182 0.00907 0.48925 0.09100
H 	H 	0.29818 0.99093 0.51075 0.09100
H 	H 	0.01368 0.38250 0.43195 0.07900
N 	N 	0.95033 0.45795 0.47566 -0.22900
N 	N 	0.04967 0.54205 0.52434 -0.22900
O 	O 	0.38925 0.73857 0.50597 -0.46100
O 	O 	0.21688 0.14017 0.09772 -0.20000
O 	O 	0.61075 0.26143 0.49403 -0.46100
O 	O 	0.67839 0.71162 0.49037 -0.46100
O 	O 	0.32161 0.28838 0.50963 -0.46100
O 	O 	0.35542 0.51351 0.63995 -0.44200
O 	O 	0.64458 0.48649 0.36005 -0.44200
O 	O 	0.64456 0.48656 0.62435 -0.44200
O 	O 	0.35544 0.51344 0.37565 -0.44200
O 	O 	0.78317 0.85980 0.90227 -0.20000
Zn	Zn	0.30694 0.51799 0.51042 1.23000
Zn	Zn	0.69306 0.48201 0.48958 1.23000
