data_crystal

_cell_length_a 19.48370
_cell_length_b 11.31758
_cell_length_c 18.69939
_cell_angle_alpha 90.00014
_cell_angle_beta  90.28657
_cell_angle_gamma 89.99997

_symmetry_space_group_name_	'P 1'
_symmetry_space_group_name_H-M	'P 1'

loop_
_symmetry_equiv_pos_as_xyz
  x,y,z

loop_
_atom_site_label
_atom_site_type_symbol
_atom_site_fract_x
_atom_site_fract_y
_atom_site_fract_z
_atom_site_charge
C 	C 	0.27260 0.04392 0.85408 0.39100
C 	C 	0.68988 0.52593 0.95653 -0.05200
C 	C 	0.22699 0.54427 0.35382 0.35200
C 	C 	0.46936 0.82274 0.64583 0.34700
C 	C 	0.53064 0.82274 0.35417 0.34700
C 	C 	0.96936 0.32274 0.64583 0.34600
C 	C 	0.03064 0.32274 0.35417 0.34600
C 	C 	0.26057 0.63988 0.64385 0.35300
C 	C 	0.73943 0.63988 0.35615 0.35300
C 	C 	0.76057 0.13988 0.64385 0.35000
C 	C 	0.23943 0.13988 0.35615 0.35000
C 	C 	0.47970 0.91314 0.03562 -0.00800
C 	C 	0.81012 0.02593 0.04347 -0.01400
C 	C 	0.52030 0.91315 0.96438 -0.00900
C 	C 	0.97970 0.41315 0.03562 -0.00600
C 	C 	0.02030 0.41314 0.96438 -0.00600
C 	C 	0.43185 0.81571 0.00614 -0.02400
C 	C 	0.56815 0.81572 0.99386 -0.02400
C 	C 	0.93185 0.31572 0.00614 -0.02200
C 	C 	0.06815 0.31572 0.99386 -0.02200
C 	C 	0.47237 0.81760 0.93588 -0.06400
C 	C 	0.52763 0.81760 0.06412 -0.06400
C 	C 	0.97237 0.31760 0.93588 -0.06000
C 	C 	0.18988 0.02593 0.95653 -0.01500
C 	C 	0.02763 0.31760 0.06412 -0.06000
C 	C 	0.61432 0.10290 0.03580 0.08400
C 	C 	0.38568 0.10290 0.96421 0.08400
C 	C 	0.11432 0.60291 0.03579 0.07900
C 	C 	0.88568 0.60290 0.96421 0.07900
C 	C 	0.32055 0.54995 0.96315 -0.05100
C 	C 	0.67945 0.54996 0.03685 -0.05100
C 	C 	0.82055 0.04995 0.96315 -0.01900
C 	C 	0.17945 0.04996 0.03685 -0.01900
C 	C 	0.17709 0.53031 0.02484 -0.03600
C 	C 	0.82291 0.53031 0.97516 -0.03600
C 	C 	0.67709 0.03031 0.02484 -0.00100
C 	C 	0.72740 0.04392 0.14592 0.39000
C 	C 	0.32291 0.03031 0.97516 -0.00100
C 	C 	0.24556 0.70970 0.05694 -0.04800
C 	C 	0.75445 0.70970 0.94306 -0.04800
C 	C 	0.74555 0.20970 0.05694 -0.04400
C 	C 	0.25444 0.20970 0.94306 -0.04400
C 	C 	0.24042 0.57672 0.07007 -0.06000
C 	C 	0.75958 0.57672 0.92993 -0.06000
C 	C 	0.74042 0.07672 0.07007 -0.08000
C 	C 	0.25958 0.07672 0.92993 -0.08000
C 	C 	0.25576 0.61046 0.93203 -0.05900
C 	C 	0.77260 0.54392 0.85408 0.34500
C 	C 	0.74425 0.61046 0.06796 -0.05900
C 	C 	0.75575 0.11046 0.93203 -0.07000
C 	C 	0.24424 0.11046 0.06796 -0.07000
C 	C 	0.19425 0.52820 0.94435 -0.05600
C 	C 	0.80575 0.52820 0.05565 -0.05600
C 	C 	0.69425 0.02820 0.94435 -0.02200
C 	C 	0.30575 0.02820 0.05565 -0.02200
C 	C 	0.24280 0.72702 0.97467 -0.05700
C 	C 	0.75721 0.72702 0.02533 -0.05700
C 	C 	0.74279 0.22702 0.97467 -0.05600
C 	C 	0.22740 0.54392 0.14592 0.34500
C 	C 	0.25721 0.22702 0.02533 -0.05600
C 	C 	0.49758 0.69907 0.45979 -0.04900
C 	C 	0.50242 0.69907 0.54021 -0.04900
C 	C 	0.99758 0.19907 0.45979 -0.05100
C 	C 	0.00242 0.19907 0.54021 -0.05100
C 	C 	0.44438 0.81677 0.86232 0.28700
C 	C 	0.55563 0.81677 0.13768 0.28700
C 	C 	0.94437 0.31677 0.86232 0.28600
C 	C 	0.05563 0.31677 0.13768 0.28600
C 	C 	0.56738 0.88805 0.47346 -0.06200
C 	C 	0.51985 0.72006 0.96461 -0.00900
C 	C 	0.43262 0.88805 0.52654 -0.06200
C 	C 	0.06738 0.38805 0.47346 -0.06300
C 	C 	0.93262 0.38805 0.52654 -0.06300
C 	C 	0.44586 0.89871 0.44537 -0.04700
C 	C 	0.55414 0.89871 0.55463 -0.04700
C 	C 	0.94586 0.39871 0.44537 -0.04800
C 	C 	0.05414 0.39871 0.55463 -0.04800
C 	C 	0.50957 0.82716 0.43052 -0.06000
C 	C 	0.49044 0.82716 0.56948 -0.06000
C 	C 	0.00957 0.32716 0.43052 -0.05800
C 	C 	0.48015 0.72005 0.03539 -0.00900
C 	C 	0.99043 0.32716 0.56948 -0.05800
C 	C 	0.18193 0.65745 0.45849 -0.04900
C 	C 	0.81807 0.65745 0.54150 -0.04900
C 	C 	0.68193 0.15745 0.45849 -0.04700
C 	C 	0.31807 0.15745 0.54151 -0.04700
C 	C 	0.18049 0.65160 0.53895 -0.04900
C 	C 	0.81951 0.65160 0.46105 -0.04900
C 	C 	0.68049 0.15160 0.53895 -0.05500
C 	C 	0.31951 0.15160 0.46105 -0.05500
C 	C 	0.24233 0.45896 0.47296 -0.06100
C 	C 	0.01985 0.22005 0.96461 -0.01000
C 	C 	0.75767 0.45896 0.52703 -0.06100
C 	C 	0.74233 0.95896 0.47296 -0.08500
C 	C 	0.25767 0.95896 0.52704 -0.08500
C 	C 	0.30824 0.63400 0.44350 -0.04600
C 	C 	0.69176 0.63399 0.55650 -0.04600
C 	C 	0.80824 0.13400 0.44350 -0.04600
C 	C 	0.19176 0.13400 0.55650 -0.04600
C 	C 	0.24012 0.57491 0.42957 -0.06200
C 	C 	0.75988 0.57491 0.57043 -0.06200
C 	C 	0.74012 0.07491 0.42957 -0.04500
C 	C 	0.98015 0.22006 0.03539 -0.01000
C 	C 	0.25988 0.07491 0.57043 -0.04500
C 	C 	0.25140 0.60609 0.56783 -0.06200
C 	C 	0.74860 0.60609 0.43217 -0.06200
C 	C 	0.75140 0.10608 0.56783 -0.03200
C 	C 	0.24860 0.10609 0.43217 -0.03200
C 	C 	0.25572 0.47502 0.55368 -0.04700
C 	C 	0.74428 0.47502 0.44631 -0.04700
C 	C 	0.75571 0.97502 0.55368 -0.07500
C 	C 	0.24428 0.97502 0.44631 -0.07500
C 	C 	0.26243 0.64227 0.85498 0.34900
C 	C 	0.31012 0.52592 0.04347 -0.05300
C 	C 	0.73757 0.64227 0.14502 0.34900
C 	C 	0.76243 0.14227 0.85498 0.35800
C 	C 	0.23757 0.14227 0.14502 0.35700
C 	C 	0.31012 0.66200 0.52419 -0.06200
C 	C 	0.68988 0.66200 0.47581 -0.06200
C 	C 	0.81012 0.16200 0.52419 -0.06500
C 	C 	0.18988 0.16200 0.47581 -0.06500
C 	C 	0.27301 0.04427 0.64618 0.38500
C 	C 	0.72699 0.04428 0.35382 0.38500
C 	C 	0.77301 0.54427 0.64618 0.35100
Cr	Cr	0.22962 0.83604 0.74911 1.51400
Cr	Cr	0.61398 0.67659 0.25079 1.51400
Cr	Cr	0.88602 0.17659 0.74921 1.51500
Cr	Cr	0.11398 0.17659 0.25079 1.51500
Cr	Cr	0.77038 0.83604 0.25089 1.51400
Cr	Cr	0.72962 0.33604 0.74911 1.51500
Cr	Cr	0.27038 0.33604 0.25089 1.51500
Cr	Cr	0.38763 0.99068 0.75073 1.50400
Cr	Cr	0.61237 0.99068 0.24927 1.50400
Cr	Cr	0.88763 0.49068 0.75073 1.51300
Cr	Cr	0.11237 0.49068 0.24927 1.51300
Cr	Cr	0.38602 0.67659 0.74921 1.51400
H 	H 	0.37716 0.80467 0.01588 0.02400
H 	H 	0.70645 0.74356 0.91885 0.03100
H 	H 	0.22005 0.89699 0.54944 0.04200
H 	H 	0.30786 0.44282 0.56818 0.03300
H 	H 	0.69214 0.44282 0.43182 0.03300
H 	H 	0.80785 0.94282 0.56818 0.02800
H 	H 	0.19214 0.94282 0.43182 0.02800
H 	H 	0.31394 0.43207 0.05431 0.04200
H 	H 	0.68606 0.43207 0.94569 0.04200
H 	H 	0.81394 0.93207 0.05431 0.01400
H 	H 	0.18606 0.93207 0.94569 0.01400
H 	H 	0.35304 0.56600 0.07439 0.03600
H 	H 	0.79355 0.24356 0.08115 0.03100
H 	H 	0.64696 0.56600 0.92561 0.03600
H 	H 	0.85304 0.06600 0.07439 0.03400
H 	H 	0.14696 0.06600 0.92561 0.03400
H 	H 	0.36608 0.60756 0.95572 0.04100
H 	H 	0.63392 0.60757 0.04428 0.04100
H 	H 	0.86608 0.10756 0.95572 0.03800
H 	H 	0.13392 0.10757 0.04428 0.03800
H 	H 	0.33097 0.46562 0.93471 0.03800
H 	H 	0.66902 0.46563 0.06529 0.03800
H 	H 	0.83098 0.96562 0.93471 0.00900
H 	H 	0.20644 0.24356 0.91885 0.03100
H 	H 	0.16902 0.96563 0.06529 0.00900
H 	H 	0.66339 0.94360 0.04483 0.00600
H 	H 	0.33661 0.94360 0.95517 0.00600
H 	H 	0.16339 0.44360 0.04483 0.03400
H 	H 	0.83661 0.44360 0.95517 0.03400
H 	H 	0.70741 0.93784 0.92716 0.00900
H 	H 	0.29259 0.93784 0.07284 0.00900
H 	H 	0.20741 0.43784 0.92716 0.03500
H 	H 	0.79259 0.43784 0.07284 0.03500
H 	H 	0.27832 0.79499 0.95722 0.03300
H 	H 	0.72168 0.79499 0.04278 0.03300
H 	H 	0.77832 0.29499 0.95722 0.03500
H 	H 	0.22168 0.29500 0.04278 0.03500
H 	H 	0.18994 0.75483 0.96106 0.04700
H 	H 	0.81006 0.75483 0.03894 0.04700
H 	H 	0.68994 0.25483 0.96106 0.04800
H 	H 	0.62284 0.80468 0.98412 0.02400
H 	H 	0.31006 0.25482 0.03894 0.04800
H 	H 	0.14954 0.55563 0.91096 0.04400
H 	H 	0.85046 0.55562 0.08904 0.04400
H 	H 	0.64954 0.05563 0.91096 0.04800
H 	H 	0.35046 0.05562 0.08904 0.04800
H 	H 	0.53290 0.63009 0.44033 0.03900
H 	H 	0.46710 0.63009 0.55967 0.03900
H 	H 	0.03290 0.13009 0.44033 0.04400
H 	H 	0.96710 0.13009 0.55967 0.04400
H 	H 	0.44634 0.66881 0.44252 0.03500
H 	H 	0.87716 0.30468 0.01588 0.02500
H 	H 	0.55366 0.66881 0.55748 0.03500
H 	H 	0.94634 0.16881 0.44252 0.03800
H 	H 	0.05366 0.16881 0.55748 0.03800
H 	H 	0.60833 0.82795 0.46622 0.03800
H 	H 	0.39167 0.82795 0.53378 0.03800
H 	H 	0.10833 0.32796 0.46622 0.03900
H 	H 	0.89167 0.32795 0.53378 0.03900
H 	H 	0.59857 0.86556 0.58617 0.02600
H 	H 	0.40143 0.86557 0.41383 0.02600
H 	H 	0.09857 0.36556 0.58617 0.03000
H 	H 	0.12284 0.30467 0.98412 0.02500
H 	H 	0.90143 0.36556 0.41383 0.03000
H 	H 	0.46431 0.99163 0.06710 0.02900
H 	H 	0.53569 0.99164 0.93290 0.02900
H 	H 	0.96431 0.49164 0.06710 0.04100
H 	H 	0.03569 0.49163 0.93290 0.04100
H 	H 	0.45531 0.99224 0.43029 0.02300
H 	H 	0.54469 0.99224 0.56971 0.02300
H 	H 	0.95530 0.49224 0.43029 0.03200
H 	H 	0.04469 0.49224 0.56971 0.03200
H 	H 	0.42099 0.97547 0.54899 0.03200
H 	H 	0.20312 0.75911 0.08288 0.03900
H 	H 	0.57901 0.97547 0.45101 0.03200
H 	H 	0.92100 0.47547 0.54899 0.04200
H 	H 	0.07901 0.47547 0.45101 0.04200
H 	H 	0.12942 0.63836 0.43931 0.03700
H 	H 	0.87058 0.63835 0.56069 0.03700
H 	H 	0.62942 0.13836 0.43931 0.04700
H 	H 	0.37058 0.13836 0.56069 0.04700
H 	H 	0.19210 0.74882 0.44074 0.03300
H 	H 	0.80790 0.74882 0.55926 0.03300
H 	H 	0.69210 0.24882 0.44074 0.03400
H 	H 	0.79688 0.75911 0.91712 0.03900
H 	H 	0.30790 0.24882 0.55926 0.03400
H 	H 	0.16395 0.73924 0.55817 0.03500
H 	H 	0.83605 0.73924 0.44183 0.03500
H 	H 	0.66395 0.23924 0.55817 0.04100
H 	H 	0.33605 0.23924 0.44183 0.04100
H 	H 	0.13988 0.59061 0.55673 0.03400
H 	H 	0.86012 0.59061 0.44326 0.03400
H 	H 	0.63988 0.09061 0.55673 0.05000
H 	H 	0.36012 0.09061 0.44326 0.05000
H 	H 	0.69151 0.92798 0.46671 0.03800
H 	H 	0.70312 0.25911 0.08287 0.04000
H 	H 	0.30849 0.92798 0.53329 0.03800
H 	H 	0.19151 0.42798 0.46671 0.03900
H 	H 	0.80849 0.42798 0.53328 0.03900
H 	H 	0.71752 0.92560 0.58590 0.02800
H 	H 	0.28248 0.92560 0.41409 0.02800
H 	H 	0.21752 0.42560 0.58590 0.02900
H 	H 	0.78247 0.42560 0.41409 0.02900
H 	H 	0.35034 0.57232 0.42905 0.03300
H 	H 	0.64967 0.57231 0.57095 0.03300
H 	H 	0.85033 0.07232 0.42905 0.04200
H 	H 	0.29688 0.25911 0.91712 0.04000
H 	H 	0.14966 0.07231 0.57095 0.04200
H 	H 	0.31363 0.71562 0.41099 0.02800
H 	H 	0.68637 0.71562 0.58901 0.02800
H 	H 	0.81363 0.21563 0.41100 0.02900
H 	H 	0.18637 0.21562 0.58901 0.02900
H 	H 	0.53547 0.63923 0.93541 0.03200
H 	H 	0.46454 0.63923 0.06459 0.03200
H 	H 	0.03547 0.13923 0.93541 0.03700
H 	H 	0.96453 0.13923 0.06459 0.03700
H 	H 	0.29950 0.75331 0.52934 0.03900
H 	H 	0.29356 0.74356 0.08115 0.03100
H 	H 	0.70050 0.75331 0.47066 0.03900
H 	H 	0.79950 0.25331 0.52935 0.03900
H 	H 	0.20050 0.25331 0.47066 0.03900
H 	H 	0.36029 0.63784 0.54681 0.04300
H 	H 	0.63971 0.63784 0.45319 0.04300
H 	H 	0.86029 0.13784 0.54681 0.04800
H 	H 	0.13971 0.13784 0.45319 0.04800
H 	H 	0.27995 0.39699 0.45055 0.04200
H 	H 	0.72005 0.39699 0.54944 0.04200
H 	H 	0.77995 0.89700 0.45055 0.04200
N 	N 	0.56615 0.16079 0.04473 -0.12100
N 	N 	0.43385 0.16079 0.95527 -0.12100
N 	N 	0.06616 0.66079 0.04473 -0.13200
N 	N 	0.93385 0.66078 0.95527 -0.13200
O 	O 	0.21413 0.70857 0.82989 -0.47100
O 	O 	0.54283 0.71730 0.33162 -0.47000
O 	O 	0.95717 0.21730 0.66838 -0.46600
O 	O 	0.04283 0.21730 0.33162 -0.46600
O 	O 	0.32087 0.62489 0.67313 -0.50800
O 	O 	0.67913 0.62489 0.32687 -0.50800
O 	O 	0.82087 0.12489 0.67313 -0.50000
O 	O 	0.17913 0.12489 0.32687 -0.50000
O 	O 	0.33443 0.83443 0.74968 -0.72800
O 	O 	0.66557 0.83443 0.25032 -0.72800
O 	O 	0.83443 0.33443 0.74968 -0.72400
O 	O 	0.78587 0.70857 0.17011 -0.47100
O 	O 	0.16557 0.33443 0.25032 -0.72400
O 	O 	0.23605 0.95915 0.82527 -0.54000
O 	O 	0.76395 0.95915 0.17473 -0.54000
O 	O 	0.73605 0.45915 0.82527 -0.50600
O 	O 	0.26395 0.45915 0.17473 -0.50600
O 	O 	0.33210 0.07665 0.83231 -0.46000
O 	O 	0.66790 0.07665 0.16769 -0.46000
O 	O 	0.83210 0.57665 0.83231 -0.46700
O 	O 	0.16790 0.57665 0.16769 -0.46700
O 	O 	0.44650 0.91862 0.82624 -0.48200
O 	O 	0.71413 0.20857 0.82989 -0.46800
O 	O 	0.55350 0.91862 0.17376 -0.48200
O 	O 	0.94650 0.41862 0.82624 -0.47300
O 	O 	0.05350 0.41862 0.17376 -0.47300
O 	O 	0.45731 0.71583 0.83128 -0.44100
O 	O 	0.54269 0.71583 0.16872 -0.44100
O 	O 	0.95731 0.21583 0.83128 -0.43600
O 	O 	0.04269 0.21583 0.16872 -0.43600
O 	O 	0.32100 0.62352 0.82413 -0.51200
O 	O 	0.67900 0.62352 0.17587 -0.51200
O 	O 	0.82100 0.12352 0.82413 -0.50600
O 	O 	0.28587 0.20857 0.17011 -0.46800
O 	O 	0.17900 0.12352 0.17587 -0.50600
O 	O 	0.21399 0.71004 0.66700 -0.47400
O 	O 	0.78601 0.71004 0.33300 -0.47400
O 	O 	0.71399 0.21004 0.66700 -0.46700
O 	O 	0.28601 0.21004 0.33300 -0.46700
O 	O 	0.23592 0.96052 0.67426 -0.54100
O 	O 	0.76408 0.96052 0.32574 -0.54100
O 	O 	0.73592 0.46052 0.67426 -0.51000
O 	O 	0.26408 0.46052 0.32574 -0.51000
O 	O 	0.33196 0.07812 0.66941 -0.46500
O 	O 	0.44636 0.91999 0.67523 -0.51200
O 	O 	0.66804 0.07812 0.33059 -0.46500
O 	O 	0.83196 0.57812 0.66941 -0.47500
O 	O 	0.16804 0.57812 0.33059 -0.47500
O 	O 	0.55364 0.91999 0.32477 -0.51200
O 	O 	0.94636 0.41999 0.67523 -0.50400
O 	O 	0.05364 0.41999 0.32477 -0.50400
O 	O 	0.45717 0.71730 0.66838 -0.47000
