data_crystal

_cell_length_a 16.59620
_cell_length_b 7.25386
_cell_length_c 15.20155
_cell_angle_alpha 90.00037
_cell_angle_beta  94.73732
_cell_angle_gamma 89.99914

_symmetry_space_group_name_	'P 1'
_symmetry_space_group_name_H-M	'P 1'

loop_
_symmetry_equiv_pos_as_xyz
  x,y,z

loop_
_atom_site_label
_atom_site_type_symbol
_atom_site_fract_x
_atom_site_fract_y
_atom_site_fract_z
_atom_site_charge
O 	O 	0.66346 0.36176 0.16597 -0.46400
O 	O 	0.33654 0.63824 0.83403 -0.46400
O 	O 	0.83654 0.86176 0.33403 -0.46500
O 	O 	0.16346 0.13824 0.66597 -0.46500
O 	O 	0.82710 0.68987 0.16373 -0.48300
O 	O 	0.17290 0.31013 0.83627 -0.48300
O 	O 	0.67290 0.18987 0.33627 -0.48300
O 	O 	0.32710 0.81013 0.66373 -0.48300
H 	H 	0.20669 0.11943 0.50636 0.05000
H 	H 	0.79331 0.88057 0.49364 0.05000
H 	H 	0.29337 0.61998 0.99355 0.05100
H 	H 	0.70663 0.38002 0.00645 0.05100
C 	C 	0.85328 0.52292 0.14357 0.36300
C 	C 	0.14672 0.47708 0.85643 0.36300
C 	C 	0.64672 0.02293 0.35643 0.36400
C 	C 	0.35328 0.97707 0.64357 0.36400
O 	O 	0.66349 0.69137 0.15550 -0.47100
O 	O 	0.33651 0.30863 0.84450 -0.47100
O 	O 	0.83651 0.19137 0.34450 -0.47100
O 	O 	0.16349 0.80863 0.65550 -0.47100
O 	O 	0.67177 0.86332 0.32574 -0.48300
O 	O 	0.32823 0.13668 0.67426 -0.48300
O 	O 	0.82823 0.36332 0.17426 -0.48200
O 	O 	0.17177 0.63668 0.82574 -0.48200
C 	C 	0.63620 0.52288 0.13369 0.34000
C 	C 	0.36380 0.47712 0.86631 0.34000
C 	C 	0.86380 0.02288 0.36631 0.34100
C 	C 	0.13620 0.97712 0.63369 0.34100
O 	O 	0.75291 0.52880 0.30586 -0.59700
O 	O 	0.24709 0.47120 0.69414 -0.59700
O 	O 	0.74709 0.02880 0.19414 -0.59700
O 	O 	0.25291 0.97120 0.80586 -0.59700
V 	V 	0.74946 0.80301 0.23964 1.80200
V 	V 	0.25054 0.19699 0.76036 1.80200
V 	V 	0.75054 0.30301 0.26036 1.80200
V 	V 	0.24946 0.69699 0.73964 1.80200
C 	C 	0.46883 0.99480 0.53012 0.05200
C 	C 	0.53117 0.00520 0.46988 0.05200
C 	C 	0.03117 0.49480 0.96988 0.05200
C 	C 	0.96883 0.50520 0.03012 0.05200
H 	H 	0.77607 0.74689 0.63617 0.07000
H 	H 	0.22393 0.25311 0.36383 0.07000
H 	H 	0.72380 0.24577 0.86403 0.07000
H 	H 	0.27620 0.75423 0.13597 0.07000
C 	C 	0.02317 0.15580 0.33294 -0.13400
C 	C 	0.97684 0.84420 0.66706 -0.13400
C 	C 	0.47690 0.65640 0.16695 -0.13400
C 	C 	0.52310 0.34359 0.83305 -0.13400
C 	C 	0.09905 0.21959 0.31359 0.19800
C 	C 	0.90095 0.78041 0.68641 0.19800
C 	C 	0.40105 0.72052 0.18624 0.19800
C 	C 	0.59895 0.27948 0.81376 0.19800
C 	C 	0.16439 0.20575 0.37770 -0.12000
C 	C 	0.83561 0.79425 0.62230 -0.12000
C 	C 	0.33571 0.70665 0.12214 -0.12000
C 	C 	0.66429 0.29335 0.87786 -0.12000
C 	C 	0.15380 0.12939 0.46002 0.00300
C 	C 	0.84620 0.87061 0.53999 0.00300
C 	C 	0.34626 0.62997 0.03988 0.00300
C 	C 	0.65374 0.37003 0.96012 0.00300
C 	C 	0.07719 0.06599 0.48129 0.01800
C 	C 	0.92281 0.93401 0.51871 0.01800
C 	C 	0.42285 0.56628 0.01865 0.01800
C 	C 	0.57715 0.43372 0.98135 0.01800
C 	C 	0.01046 0.07929 0.41638 0.08000
C 	C 	0.98954 0.92071 0.58362 0.08000
C 	C 	0.48957 0.57959 0.08356 0.08100
C 	C 	0.51043 0.42041 0.91644 0.08100
C 	C 	0.06685 0.98686 0.56502 -0.09600
C 	C 	0.93315 0.01314 0.43498 -0.09600
C 	C 	0.43315 0.48685 0.93498 -0.09600
C 	C 	0.56685 0.51315 0.06502 -0.09600
C 	C 	0.41601 0.98624 0.58147 -0.08600
C 	C 	0.58399 0.01376 0.41853 -0.08600
C 	C 	0.08399 0.48624 0.91853 -0.08600
C 	C 	0.91601 0.51376 0.08147 -0.08600
H 	H 	0.97456 0.16619 0.28121 0.09400
H 	H 	0.02544 0.83381 0.71879 0.09400
H 	H 	0.52550 0.66679 0.21869 0.09400
H 	H 	0.47450 0.33321 0.78131 0.09400
O 	O 	0.10737 0.29354 0.23122 -0.29000
H 	H 	0.16437 0.33215 0.22789 0.15200
O 	O 	0.89263 0.70646 0.76879 -0.29000
H 	H 	0.83563 0.66785 0.77211 0.15200
O 	O 	0.39277 0.79481 0.26856 -0.29000
H 	H 	0.33580 0.83372 0.27183 0.15200
O 	O 	0.60723 0.20519 0.73144 -0.29000
H 	H 	0.66420 0.16628 0.72817 0.15200
