data_crystal

_cell_length_a 14.97557
_cell_length_b 10.86113
_cell_length_c 9.73330
_cell_angle_alpha 91.05600
_cell_angle_beta  89.34863
_cell_angle_gamma 95.75377

_symmetry_space_group_name_	'P 1'
_symmetry_space_group_name_H-M	'P 1'

loop_
_symmetry_equiv_pos_as_xyz
  x,y,z

loop_
_atom_site_label
_atom_site_type_symbol
_atom_site_fract_x
_atom_site_fract_y
_atom_site_fract_z
_atom_site_charge
C 	C 	0.48996 0.26113 0.50043 0.26900
C 	C 	0.91626 0.61835 0.49927 0.00100
C 	C 	0.93528 0.27843 0.53309 -0.11400
C 	C 	0.02840 0.27586 0.53808 0.13400
C 	C 	0.08489 0.38621 0.52226 -0.05300
C 	C 	0.04738 0.50037 0.51243 0.01100
C 	C 	0.10390 0.61157 0.50549 0.01400
C 	C 	0.06771 0.72448 0.50389 -0.07200
C 	C 	0.97478 0.73082 0.49781 0.02500
C 	C 	0.17838 0.38534 0.51757 0.01100
C 	C 	0.23314 0.49622 0.50421 -0.07700
C 	C 	0.32933 0.49622 0.50088 0.30000
C 	C 	0.19660 0.60868 0.50082 -0.01900
C 	C 	0.45591 0.12396 0.76217 0.11200
C 	C 	0.48903 0.07473 0.87917 -0.02800
C 	C 	0.47622 0.94543 0.89011 -0.01700
C 	C 	0.45048 0.87503 0.77101 0.08800
C 	C 	0.46292 0.93115 0.63953 0.01700
C 	C 	0.46481 0.06141 0.63553 -0.02400
C 	C 	0.46814 0.12348 0.50748 -0.02700
C 	C 	0.44349 0.05187 0.39022 -0.08300
C 	C 	0.43226 0.92141 0.39742 0.14900
C 	C 	0.48726 0.73437 0.50276 0.30600
C 	C 	0.46220 0.86364 0.51325 -0.11500
C 	C 	0.63805 0.63486 0.14758 -0.13300
C 	C 	0.71833 0.68004 0.08549 0.11300
C 	C 	0.72550 0.67190 0.94209 0.03700
C 	C 	0.64591 0.64143 0.86623 0.08100
C 	C 	0.57117 0.56613 0.92733 0.01700
C 	C 	0.56944 0.56510 0.07576 0.07900
C 	C 	0.43061 0.44272 0.07116 0.04700
C 	C 	0.42918 0.45081 0.92518 0.01200
C 	C 	0.67087 0.50178 0.49944 0.29300
C 	C 	0.82205 0.61511 0.49183 -0.00700
C 	C 	0.76777 0.50279 0.49921 -0.04900
C 	C 	0.80511 0.39158 0.51382 -0.03300
C 	C 	0.89787 0.39067 0.51870 0.04800
C 	C 	0.95379 0.50339 0.51038 -0.01400
Cu	Cu	0.49999 0.49999 0.64066 0.92400
Cu	Cu	0.50001 0.50001 0.35934 0.91700
H 	H 	0.78847 0.69746 0.48106 0.04200
H 	H 	0.62971 0.66088 0.25222 0.08100
H 	H 	0.76157 0.30580 0.52134 0.04600
H 	H 	0.37077 0.41175 0.86994 0.04600
H 	H 	0.89231 0.19230 0.54093 0.06100
H 	H 	0.20899 0.29929 0.52351 0.03700
H 	H 	0.24082 0.69356 0.49461 0.04100
H 	H 	0.11289 0.80889 0.50650 0.04200
H 	H 	0.42893 0.09665 0.29609 0.05800
N 	N 	0.50086 0.50121 0.14791 -0.19200
N 	N 	0.50089 0.50129 0.85204 -0.16200
O 	O 	0.49999 0.31964 0.61881 -0.34700
O 	O 	0.50000 0.31966 0.38124 -0.36500
O 	O 	0.37025 0.49996 0.61880 -0.36800
O 	O 	0.37026 0.49998 0.38123 -0.37600
O 	O 	0.50000 0.68034 0.61876 -0.34000
O 	O 	0.50001 0.68036 0.38119 -0.36400
O 	O 	0.62974 0.50002 0.61877 -0.34800
O 	O 	0.62975 0.50004 0.38120 -0.36900
O 	O 	0.39638 0.21260 0.77943 -0.19000
C 	C 	0.30767 0.15696 0.76430 -0.02500
H 	H 	0.26099 0.22713 0.79021 0.04000
H 	H 	0.29276 0.07864 0.83594 0.03500
H 	H 	0.29441 0.12562 0.65637 0.04100
C 	C 	0.52733 0.16221 0.99077 -0.02800
C 	C 	0.62979 0.17797 0.98265 -0.13700
H 	H 	0.65815 0.08748 0.98112 0.06000
H 	H 	0.65204 0.22751 0.88741 0.07000
H 	H 	0.65680 0.23360 0.07252 0.05600
H 	H 	0.50593 0.25461 0.97577 0.05500
H 	H 	0.50267 0.13472 0.09396 0.03100
C 	C 	0.46585 0.88812 0.02923 -0.04700
C 	C 	0.55410 0.88869 0.10455 -0.15300
H 	H 	0.60596 0.85900 0.03365 0.05900
H 	H 	0.57685 0.97949 0.15154 0.05700
H 	H 	0.54499 0.82414 0.19056 0.08200
H 	H 	0.41925 0.94198 0.08775 0.04400
H 	H 	0.43505 0.79084 0.02335 0.05900
O 	O 	0.40006 0.76189 0.78573 -0.16900
C 	C 	0.30827 0.78100 0.78594 -0.03000
H 	H 	0.28927 0.82617 0.69030 0.03700
H 	H 	0.29060 0.83678 0.87750 0.03500
H 	H 	0.26804 0.68971 0.79142 0.05100
O 	O 	0.38615 0.84831 0.29854 -0.20400
C 	C 	0.29697 0.87982 0.29158 -0.01900
H 	H 	0.29391 0.96639 0.23353 0.02500
H 	H 	0.26589 0.89000 0.39520 0.03000
H 	H 	0.25605 0.80458 0.23561 0.03600
C 	C 	0.35585 0.35710 0.13360 -0.07900
C 	C 	0.26588 0.41251 0.13059 -0.13200
H 	H 	0.27212 0.50851 0.17310 0.07300
H 	H 	0.24125 0.41424 0.02353 0.05100
H 	H 	0.21543 0.35494 0.19245 0.05800
H 	H 	0.34887 0.26850 0.07374 0.04300
H 	H 	0.37121 0.32937 0.23805 0.05300
O 	O 	0.78809 0.73381 0.16525 -0.19700
C 	C 	0.76527 0.84935 0.21675 -0.02400
H 	H 	0.71496 0.83797 0.30145 0.03500
H 	H 	0.74231 0.90826 0.13476 0.02300
H 	H 	0.82544 0.90163 0.25947 0.03200
O 	O 	0.80689 0.68541 0.87013 -0.16000
C 	C 	0.86211 0.79341 0.90800 -0.02900
H 	H 	0.90628 0.77462 0.99431 0.05600
H 	H 	0.82339 0.87355 0.93136 0.03700
H 	H 	0.90693 0.82011 0.81974 0.03700
O 	O 	0.63902 0.69168 0.73759 -0.16900
C 	C 	0.67659 0.81621 0.72714 -0.02100
H 	H 	0.74797 0.82016 0.69498 0.04300
H 	H 	0.66832 0.87195 0.82226 0.03600
H 	H 	0.64206 0.86060 0.64419 0.04600
O 	O 	0.06427 0.16455 0.55292 -0.21400
C 	C 	0.06108 0.13469 0.69339 -0.02300
H 	H 	0.09578 0.21021 0.75794 0.03400
H 	H 	0.09642 0.05079 0.70712 0.03400
H 	H 	0.99062 0.11323 0.72967 0.03600
C 	C 	0.94430 0.86014 0.49475 -0.06000
C 	C 	0.98516 0.93339 0.37212 -0.14200
H 	H 	0.05788 0.96041 0.38666 0.05800
H 	H 	0.97634 0.87749 0.27563 0.05900
H 	H 	0.95214 0.01980 0.36173 0.06400
H 	H 	0.87095 0.86189 0.49249 0.03700
H 	H 	0.96641 0.90999 0.59085 0.04100
