data_crystal

_cell_length_a 10.85200
_cell_length_b 10.86140
_cell_length_c 10.42359
_cell_angle_alpha 90.39829
_cell_angle_beta  90.26433
_cell_angle_gamma 90.05311

_symmetry_space_group_name_	'P 1'
_symmetry_space_group_name_H-M	'P 1'

loop_
_symmetry_equiv_pos_as_xyz
  x,y,z

loop_
_atom_site_label
_atom_site_type_symbol
_atom_site_fract_x
_atom_site_fract_y
_atom_site_fract_z
_atom_site_charge
C 	C 	0.49555 0.26151 0.49921 0.34700
C 	C 	0.69198 0.82966 0.74410 0.01200
C 	C 	0.42512 0.11577 0.26319 -0.01500
C 	C 	0.57504 0.88422 0.73672 -0.01500
C 	C 	0.49931 0.11035 0.15338 0.00400
C 	C 	0.50093 0.88941 0.84659 0.00300
C 	C 	0.45757 0.16013 0.03771 -0.11100
C 	C 	0.54283 0.83957 0.96216 -0.11100
C 	C 	0.34102 0.21468 0.02967 0.18200
C 	C 	0.65947 0.78518 0.97004 0.18200
C 	C 	0.47676 0.93254 0.38825 -0.01800
C 	C 	0.50444 0.73848 0.50079 0.34600
C 	C 	0.52319 0.06746 0.61176 -0.01800
C 	C 	0.50686 0.87210 0.50222 -0.09400
C 	C 	0.49310 0.12790 0.49777 -0.09400
C 	C 	0.26155 0.50397 0.49945 0.34600
C 	C 	0.73845 0.49603 0.50055 0.34600
C 	C 	0.53239 0.94036 0.61526 0.04000
C 	C 	0.46759 0.05964 0.38473 0.04000
C 	C 	0.50000 0.49999 0.07193 0.07500
C 	C 	0.50000 0.50001 0.92807 0.07500
C 	C 	0.23074 0.76232 0.16957 -0.01600
C 	C 	0.87201 0.49391 0.50160 -0.09200
C 	C 	0.76933 0.23753 0.83030 -0.01600
C 	C 	0.17898 0.71201 0.28020 -0.03900
C 	C 	0.82106 0.28792 0.71970 -0.03900
C 	C 	0.11781 0.59803 0.27396 0.02100
C 	C 	0.88220 0.40193 0.72601 0.02100
C 	C 	0.10863 0.53574 0.15576 -0.04500
C 	C 	0.89136 0.46414 0.84425 -0.04500
C 	C 	0.16235 0.58535 0.04593 -0.01900
C 	C 	0.83769 0.41444 0.95405 -0.01900
C 	C 	0.22319 0.69866 0.05278 -0.03500
C 	C 	0.12799 0.50611 0.49841 -0.09200
C 	C 	0.77689 0.30111 0.94713 -0.03500
C 	C 	0.93274 0.53740 0.39274 -0.01500
C 	C 	0.06726 0.46263 0.60727 -0.01500
C 	C 	0.93981 0.45480 0.61003 0.02800
C 	C 	0.06019 0.54522 0.38998 0.02800
C 	C 	0.26631 0.21949 0.13975 -0.11800
C 	C 	0.73410 0.78061 0.85989 -0.11800
C 	C 	0.30827 0.17049 0.25564 0.01100
Cu	Cu	0.50000 0.50000 0.62530 0.92400
Cu	Cu	0.50000 0.50000 0.37470 0.92400
H 	H 	0.26395 0.73738 0.96748 0.04200
H 	H 	0.72402 0.14886 0.82577 0.03500
H 	H 	0.18573 0.76199 0.37025 0.04900
H 	H 	0.81430 0.23800 0.62962 0.04900
H 	H 	0.06039 0.44868 0.14907 0.04000
H 	H 	0.93957 0.55122 0.85100 0.04000
H 	H 	0.15638 0.53626 0.95540 0.03500
H 	H 	0.84367 0.46347 0.04462 0.03500
H 	H 	0.88058 0.56922 0.31034 0.05000
H 	H 	0.11942 0.43081 0.68966 0.05000
H 	H 	0.17545 0.26007 0.13564 0.06100
H 	H 	0.73618 0.26232 0.03242 0.04300
H 	H 	0.82502 0.74016 0.86387 0.06100
H 	H 	0.24946 0.17433 0.33928 0.03600
H 	H 	0.75071 0.82600 0.66041 0.03600
H 	H 	0.21932 0.29750 0.92414 0.14600
H 	H 	0.78137 0.70242 0.07535 0.14600
H 	H 	0.58940 0.06765 0.15743 0.03600
H 	H 	0.41078 0.93198 0.84266 0.03600
H 	H 	0.51573 0.15570 0.95374 0.07100
H 	H 	0.48473 0.84381 0.04618 0.07100
H 	H 	0.45677 0.88041 0.30164 0.05100
H 	H 	0.54319 0.11958 0.69836 0.05100
H 	H 	0.27609 0.85097 0.17405 0.03500
N 	N 	0.50001 0.49999 0.18641 -0.18900
N 	N 	0.49999 0.50001 0.81359 -0.18900
O 	O 	0.49999 0.31965 0.60581 -0.38100
O 	O 	0.69785 0.73797 0.08600 -0.29100
O 	O 	0.50001 0.68035 0.39419 -0.38100
O 	O 	0.49999 0.31964 0.39419 -0.38400
O 	O 	0.50001 0.68036 0.60581 -0.38400
O 	O 	0.31964 0.50001 0.60581 -0.38400
O 	O 	0.68036 0.49999 0.39419 -0.38400
O 	O 	0.31965 0.50001 0.39419 -0.38400
O 	O 	0.68035 0.49999 0.60581 -0.38400
O 	O 	0.30279 0.26180 0.91360 -0.29100
