data_crystal

_cell_length_a 27.34364
_cell_length_b 9.18744
_cell_length_c 8.08409
_cell_angle_alpha 90.35144
_cell_angle_beta  89.81076
_cell_angle_gamma 89.36703

_symmetry_space_group_name_	'P 1'
_symmetry_space_group_name_H-M	'P 1'

loop_
_symmetry_equiv_pos_as_xyz
  x,y,z

loop_
_atom_site_label
_atom_site_type_symbol
_atom_site_fract_x
_atom_site_fract_y
_atom_site_fract_z
_atom_site_charge
O 	O 	0.50000 0.28535 0.63685 -0.43500
O 	O 	0.50000 0.71465 0.36315 -0.43700
O 	O 	0.50000 0.71465 0.63685 -0.43700
O 	O 	0.50000 0.28535 0.36315 -0.43600
C 	C 	0.50002 0.21746 0.49968 0.37700
C 	C 	0.49999 0.78254 0.50033 0.37100
O 	O 	0.42876 0.50000 0.63686 -0.45400
O 	O 	0.57124 0.50000 0.36314 -0.46400
O 	O 	0.57124 0.50000 0.63686 -0.45700
O 	O 	0.42876 0.50000 0.36314 -0.44400
C 	C 	0.40547 0.50968 0.50112 0.43800
C 	C 	0.59457 0.49539 0.50000 0.43400
Zn	Zn	0.50000 0.50000 0.68278 1.23000
Zn	Zn	0.50000 0.50000 0.31722 1.22900
C 	C 	0.18384 0.38945 0.63059 0.21100
C 	C 	0.81739 0.55286 0.66540 0.21200
C 	C 	0.17239 0.64546 0.66026 0.20400
C 	C 	0.82947 0.32354 0.53251 0.21200
O 	O 	0.21506 0.27513 0.61728 -0.17800
O 	O 	0.78573 0.65100 0.73123 -0.20400
O 	O 	0.18929 0.78104 0.63697 -0.20000
O 	O 	0.81231 0.22059 0.42895 -0.20800
N 	N 	0.20170 0.52775 0.62505 -0.18600
N 	N 	0.79973 0.43621 0.58020 -0.19000
C 	C 	0.28526 0.60589 0.69595 -0.10400
C 	C 	0.71681 0.35517 0.64473 -0.11100
C 	C 	0.26882 0.50324 0.41963 -0.11100
C 	C 	0.73047 0.52029 0.41175 -0.11000
C 	C 	0.33465 0.61504 0.65378 0.23900
C 	C 	0.66633 0.36708 0.61965 0.24300
C 	C 	0.31995 0.48902 0.39195 0.23600
C 	C 	0.67979 0.54289 0.39664 0.24300
C 	C 	0.25205 0.54831 0.57917 0.13800
C 	C 	0.74871 0.43360 0.54209 0.14200
C 	C 	0.10301 0.48806 0.68512 0.08400
C 	C 	0.89844 0.44828 0.64781 0.09100
C 	C 	0.13311 0.36746 0.64392 -0.12100
C 	C 	0.86827 0.57004 0.67981 -0.13900
C 	C 	0.12410 0.62511 0.71300 -0.13500
C 	C 	0.87792 0.31820 0.59023 -0.13500
C 	C 	0.11191 0.23152 0.60938 0.13600
C 	C 	0.89048 0.70463 0.71273 0.15300
C 	C 	0.09598 0.73734 0.78847 0.13200
C 	C 	0.90602 0.18908 0.60259 0.13700
C 	C 	0.35261 0.54215 0.51094 -0.24100
C 	C 	0.64755 0.46815 0.50325 -0.25500
C 	C 	0.97841 0.32940 0.66072 -0.00200
C 	C 	0.02242 0.59742 0.73140 0.00300
C 	C 	0.97126 0.59090 0.70322 -0.00600
C 	C 	0.03016 0.33836 0.65661 0.01400
C 	C 	0.94954 0.45629 0.67167 -0.02600
C 	C 	0.05187 0.47369 0.69368 -0.03300
C 	C 	0.95393 0.19711 0.66409 0.09400
C 	C 	0.04488 0.72190 0.80079 0.07500
C 	C 	0.94110 0.71604 0.69305 0.08200
C 	C 	0.06035 0.22046 0.60183 0.06900
C 	C 	0.50003 0.06463 0.49959 -0.05400
C 	C 	0.50001 0.93537 0.50046 -0.04200
N 	N 	0.50000 0.50000 0.07364 -0.17900
N 	N 	0.50000 0.50000 0.92636 -0.16600
O 	O 	0.33894 0.41876 0.25435 -0.28800
H 	H 	0.31840 0.33298 0.23100 0.15400
O 	O 	0.66353 0.64218 0.28063 -0.30600
H 	H 	0.63206 0.68552 0.31754 0.17200
O 	O 	0.36535 0.68816 0.76040 -0.29400
H 	H 	0.39104 0.73550 0.69336 0.16700
O 	O 	0.63611 0.28116 0.71444 -0.29800
H 	H 	0.60741 0.25398 0.64697 0.16600
C 	C 	0.23258 0.46813 0.28164 0.00000
C 	C 	0.19827 0.59593 0.24244 -0.16500
H 	H 	0.16924 0.60827 0.33708 0.07900
H 	H 	0.21906 0.69864 0.23324 0.07200
H 	H 	0.17946 0.57535 0.12321 0.06100
H 	H 	0.25157 0.44101 0.16411 0.03100
H 	H 	0.21070 0.37137 0.31352 0.04700
C 	C 	0.76495 0.59529 0.29244 0.01500
C 	C 	0.76584 0.51745 0.12523 -0.17300
H 	H 	0.77614 0.40107 0.14102 0.08000
H 	H 	0.72953 0.52492 0.06461 0.09000
H 	H 	0.79339 0.56887 0.04397 0.08300
H 	H 	0.75361 0.71081 0.27599 0.04800
H 	H 	0.80302 0.59798 0.33883 0.04000
C 	C 	0.26981 0.64993 0.87045 0.01000
C 	C 	0.27246 0.81466 0.90018 -0.15700
H 	H 	0.31018 0.84688 0.93321 0.09200
H 	H 	0.26109 0.87669 0.78929 0.09600
H 	H 	0.24811 0.84641 0.00471 0.06000
H 	H 	0.23252 0.61292 0.89978 0.03600
H 	H 	0.29394 0.59385 0.96086 0.05300
C 	C 	0.73596 0.26109 0.78513 0.01400
C 	C 	0.73466 0.09920 0.74097 -0.17300
H 	H 	0.69656 0.06303 0.72069 0.09000
H 	H 	0.75639 0.07647 0.62752 0.08400
H 	H 	0.75050 0.03481 0.84392 0.08100
H 	H 	0.77394 0.28922 0.81960 0.03700
H 	H 	0.71361 0.28115 0.89824 0.04800
O 	O 	0.14188 0.11331 0.57323 -0.25900
H 	H 	0.12387 0.02259 0.59540 0.16800
O 	O 	0.86395 0.82926 0.74465 -0.26000
H 	H 	0.83706 0.83339 0.66336 0.16200
O 	O 	0.11736 0.85864 0.85807 -0.27400
H 	H 	0.15027 0.83071 0.89879 0.15900
O 	O 	0.88754 0.05434 0.56812 -0.25200
H 	H 	0.85221 0.05739 0.59271 0.15900
O 	O 	0.97358 0.08815 0.75969 -0.23400
H 	H 	0.94608 0.04029 0.81763 0.17600
O 	O 	0.01636 0.82092 0.88895 -0.24200
H 	H 	0.03669 0.90058 0.93305 0.17400
O 	O 	0.95821 0.84283 0.62614 -0.22100
H 	H 	0.98868 0.82205 0.56307 0.15800
O 	O 	0.03908 0.10212 0.52511 -0.23900
H 	H 	0.06162 0.06288 0.43917 0.14400
