data_crystal

_cell_length_a 27.81256
_cell_length_b 8.73467
_cell_length_c 7.40841
_cell_angle_alpha 102.91863
_cell_angle_beta  94.25151
_cell_angle_gamma 92.48683

_symmetry_space_group_name_	'P 1'
_symmetry_space_group_name_H-M	'P 1'

loop_
_symmetry_equiv_pos_as_xyz
  x,y,z

loop_
_atom_site_label
_atom_site_type_symbol
_atom_site_fract_x
_atom_site_fract_y
_atom_site_fract_z
_atom_site_charge
C 	C 	0.49758 0.20026 0.45422 0.34000
C 	C 	0.86892 0.36438 0.38167 -0.06700
C 	C 	0.35409 0.49516 0.50800 -0.08800
C 	C 	0.64591 0.50484 0.49200 -0.08800
C 	C 	0.97134 0.35934 0.41979 0.01900
C 	C 	0.02866 0.64067 0.58021 0.01900
C 	C 	0.97763 0.64489 0.54928 0.01800
C 	C 	0.02237 0.35511 0.45072 0.01800
C 	C 	0.94901 0.50348 0.47436 -0.02300
C 	C 	0.05099 0.49653 0.52564 -0.02300
C 	C 	0.94195 0.22434 0.32874 -0.05600
C 	C 	0.50242 0.79974 0.54578 0.33900
C 	C 	0.05805 0.77567 0.67125 -0.05600
C 	C 	0.89186 0.22493 0.31066 0.02600
C 	C 	0.10814 0.77508 0.68933 0.02600
C 	C 	0.40729 0.49775 0.50189 0.32500
C 	C 	0.59271 0.50225 0.49811 0.32500
C 	C 	0.04566 0.21245 0.41313 -0.05700
C 	C 	0.95434 0.78755 0.58688 -0.05700
C 	C 	0.49050 0.03442 0.43343 -0.07800
C 	C 	0.50950 0.96558 0.56657 -0.07800
C 	C 	0.17586 0.35335 0.50669 0.19700
C 	C 	0.10231 0.49385 0.54639 0.06000
C 	C 	0.82414 0.64666 0.49331 0.19700
C 	C 	0.18170 0.63240 0.61399 0.19600
C 	C 	0.81830 0.36761 0.38601 0.19600
C 	C 	0.28589 0.53727 0.69673 -0.08600
C 	C 	0.71411 0.46274 0.30327 -0.08600
C 	C 	0.33542 0.53963 0.68205 0.04600
C 	C 	0.66458 0.46038 0.31795 0.04600
C 	C 	0.32151 0.44931 0.34543 0.04600
C 	C 	0.67849 0.55069 0.65457 0.04600
C 	C 	0.27137 0.45393 0.36073 -0.07100
C 	C 	0.89769 0.50616 0.45361 0.06000
C 	C 	0.72863 0.54607 0.63926 -0.07100
C 	C 	0.25368 0.49487 0.53749 0.13800
C 	C 	0.74632 0.50513 0.46251 0.13800
C 	C 	0.33851 0.39136 0.16364 0.09400
C 	C 	0.66149 0.60864 0.83636 0.09400
C 	C 	0.23777 0.41908 0.19540 0.12900
C 	C 	0.76223 0.58092 0.80460 0.12900
C 	C 	0.11503 0.05545 0.37271 0.09300
C 	C 	0.88497 0.94455 0.62729 0.09300
C 	C 	0.86577 0.07968 0.21194 0.09600
C 	C 	0.12487 0.34976 0.49399 -0.06800
C 	C 	0.13423 0.92033 0.78805 0.09600
C 	C 	0.45806 0.95223 0.27450 0.14800
C 	C 	0.54194 0.04777 0.72550 0.14800
C 	C 	0.87513 0.65024 0.50601 -0.06800
C 	C 	0.09567 0.20845 0.42974 0.02300
C 	C 	0.90433 0.79156 0.57026 0.02300
C 	C 	0.13107 0.63563 0.61833 -0.06800
Cu	Cu	0.50538 0.51738 0.68438 0.92500
Cu	Cu	0.49462 0.48262 0.31562 0.92500
H 	H 	0.95697 0.11567 0.26522 0.05100
H 	H 	0.97424 0.90021 0.62800 0.04900
H 	H 	0.04303 0.88434 0.73477 0.05100
H 	H 	0.46237 0.37802 0.94779 0.10600
H 	H 	0.53763 0.62198 0.05221 0.10600
H 	H 	0.64077 0.42381 0.19161 0.05400
H 	H 	0.35923 0.57619 0.80839 0.05400
H 	H 	0.72761 0.43051 0.16730 0.08400
H 	H 	0.27239 0.56950 0.83270 0.08400
H 	H 	0.02576 0.09979 0.37201 0.04900
N 	N 	0.20253 0.49344 0.55562 -0.17500
N 	N 	0.86974 0.06711 0.67385 -0.09600
N 	N 	0.84514 0.96324 0.13284 -0.09000
N 	N 	0.15486 0.03677 0.86715 -0.09000
N 	N 	0.43227 0.88737 0.14808 -0.10700
N 	N 	0.56773 0.11263 0.85192 -0.10700
N 	N 	0.79746 0.50657 0.44438 -0.17500
N 	N 	0.48651 0.45643 0.03851 -0.17700
N 	N 	0.51349 0.54357 0.96149 -0.17700
N 	N 	0.35195 0.34415 0.01857 -0.09900
N 	N 	0.64805 0.65586 0.98143 -0.09900
N 	N 	0.21097 0.39154 0.06351 -0.10700
N 	N 	0.78903 0.60847 0.93649 -0.10700
N 	N 	0.13026 0.93290 0.32615 -0.09600
O 	O 	0.50350 0.28612 0.61978 -0.37200
O 	O 	0.80089 0.78098 0.53199 -0.16800
O 	O 	0.78994 0.23312 0.33837 -0.17100
O 	O 	0.21006 0.76689 0.66163 -0.17100
O 	O 	0.49650 0.71388 0.38022 -0.37200
O 	O 	0.49441 0.25678 0.30836 -0.36900
O 	O 	0.50559 0.74322 0.69164 -0.36900
O 	O 	0.43481 0.51470 0.65569 -0.37100
O 	O 	0.56519 0.48530 0.34431 -0.37100
O 	O 	0.42572 0.48535 0.34428 -0.36600
O 	O 	0.57428 0.51465 0.65572 -0.36600
O 	O 	0.19911 0.21902 0.46801 -0.16800
