data_crystal

_cell_length_a 14.49369
_cell_length_b 16.40139
_cell_length_c 9.73756
_cell_angle_alpha 89.42703
_cell_angle_beta  88.91830
_cell_angle_gamma 90.48492

_symmetry_space_group_name_	'P 1'
_symmetry_space_group_name_H-M	'P 1'

loop_
_symmetry_equiv_pos_as_xyz
  x,y,z

loop_
_atom_site_label
_atom_site_type_symbol
_atom_site_fract_x
_atom_site_fract_y
_atom_site_fract_z
_atom_site_charge
C 	C 	0.38478 0.87774 0.50195 0.29200
C 	C 	0.70354 0.23067 0.37458 0.18800
C 	C 	0.17796 0.25264 0.39962 0.18000
C 	C 	0.21431 0.72361 0.37264 0.18200
C 	C 	0.68991 0.81675 0.49308 -0.09700
C 	C 	0.66156 0.20275 0.49671 -0.12100
C 	C 	0.18698 0.31539 0.49619 -0.10300
C 	C 	0.16478 0.70149 0.49335 -0.11800
C 	C 	0.66635 0.03903 0.13534 -0.01900
C 	C 	0.16742 0.50733 0.13913 -0.12500
C 	C 	0.73146 0.08815 0.06570 0.14800
C 	C 	0.37707 0.11550 0.50087 0.28300
C 	C 	0.23497 0.56151 0.08803 0.17000
C 	C 	0.73089 0.08955 0.92216 0.03700
C 	C 	0.23395 0.57991 0.94719 0.02100
C 	C 	0.66396 0.04255 0.85630 0.11800
C 	C 	0.16719 0.54038 0.86587 0.12600
C 	C 	0.58052 0.01947 0.92431 0.04800
C 	C 	0.08175 0.51435 0.92640 -0.01100
C 	C 	0.58109 0.01836 0.07214 0.13000
C 	C 	0.08159 0.50768 0.07335 0.12500
C 	C 	0.42217 0.98335 0.07478 -0.00200
C 	C 	0.88327 0.37868 0.50178 0.28700
C 	C 	0.92030 0.49036 0.07472 0.00100
C 	C 	0.60978 0.12452 0.49882 0.30200
C 	C 	0.62149 0.88340 0.49882 0.30400
C 	C 	0.11077 0.62419 0.49818 0.30700
C 	C 	0.12095 0.38334 0.49922 0.31300
C 	C 	0.42207 0.98536 0.92832 0.15500
C 	C 	0.92099 0.49000 0.92794 0.15200
C 	C 	0.32478 0.21624 0.75296 -0.04900
C 	C 	0.29345 0.80580 0.76094 -0.05600
C 	C 	0.80586 0.70022 0.75557 -0.05400
C 	C 	0.87672 0.61506 0.50036 0.28500
C 	C 	0.79105 0.31088 0.76054 -0.05500
C 	C 	0.34369 0.28218 0.83809 0.02400
C 	C 	0.23212 0.79908 0.87217 0.02300
C 	C 	0.82300 0.76054 0.85196 0.00800
C 	C 	0.72957 0.30758 0.87088 0.01500
C 	C 	0.82781 0.84226 0.80933 -0.06200
C 	C 	0.64157 0.27533 0.85799 -0.06700
C 	C 	0.34397 0.36163 0.78334 -0.07900
C 	C 	0.14084 0.77499 0.85364 -0.06300
C 	C 	0.79506 0.86307 0.67771 0.16100
C 	C 	0.24770 0.19487 0.38794 -0.03900
C 	C 	0.61485 0.24529 0.73073 0.15800
C 	C 	0.30053 0.37442 0.65485 0.16700
C 	C 	0.11396 0.74818 0.72413 0.15100
C 	C 	0.75066 0.80188 0.60147 -0.02100
C 	C 	0.67953 0.24458 0.61870 -0.00900
C 	C 	0.25629 0.30801 0.59416 -0.00500
C 	C 	0.18051 0.74516 0.61444 -0.00900
C 	C 	0.29333 0.23104 0.61893 0.05000
C 	C 	0.26519 0.78755 0.62685 0.05300
C 	C 	0.78280 0.72279 0.62057 0.05300
C 	C 	0.29620 0.76842 0.38119 -0.04600
C 	C 	0.76329 0.28896 0.62806 0.05500
C 	C 	0.30387 0.17865 0.50390 -0.04400
C 	C 	0.31908 0.80684 0.50610 -0.04700
C 	C 	0.80270 0.67740 0.50038 -0.05100
C 	C 	0.81424 0.31017 0.50525 -0.04700
C 	C 	0.25826 0.15662 0.25243 0.15500
C 	C 	0.35975 0.76731 0.25982 0.14500
C 	C 	0.79127 0.67732 0.23780 0.15000
C 	C 	0.83414 0.28956 0.24770 0.15500
C 	C 	0.87329 0.90161 0.89988 0.12400
C 	C 	0.75919 0.70209 0.37620 -0.05500
C 	C 	0.57956 0.27278 0.97988 0.12000
C 	C 	0.38896 0.42633 0.86445 0.14500
C 	C 	0.07348 0.77801 0.96940 0.12300
C 	C 	0.33221 0.96245 0.14202 0.12400
C 	C 	0.82732 0.47706 0.14060 0.11800
C 	C 	0.71167 0.98408 0.23145 0.01800
C 	C 	0.20726 0.42728 0.17525 0.15700
C 	C 	0.78432 0.27711 0.37927 -0.05200
C 	C 	0.69089 0.76252 0.38161 0.17900
Cu	Cu	0.49999 1.00000 0.64066 0.89600
Cu	Cu	0.99999 0.50000 0.64066 0.91100
Cu	Cu	0.50001 1.00000 0.35934 0.89800
Cu	Cu	0.00001 0.50000 0.35934 0.92500
H 	H 	0.33445 0.15561 0.79375 0.09300
H 	H 	0.33302 0.76256 0.15722 0.03100
H 	H 	0.74579 0.64448 0.17018 0.02100
H 	H 	0.79613 0.30659 0.15957 0.01700
H 	H 	0.86059 0.12035 0.89271 0.16800
H 	H 	0.34246 0.65104 0.95366 0.16100
H 	H 	0.73537 0.03872 0.68817 0.19800
H 	H 	0.24455 0.54753 0.70413 0.18900
H 	H 	0.34231 0.99990 0.77369 0.14400
H 	H 	0.84372 0.49846 0.76860 0.15500
H 	H 	0.88730 0.88490 0.00556 0.04100
H 	H 	0.36403 0.82054 0.78408 0.07900
H 	H 	0.58769 0.31746 0.06033 0.03100
H 	H 	0.40679 0.41389 0.97039 0.01500
H 	H 	0.00993 0.74287 0.96635 0.03500
H 	H 	0.81130 0.93303 0.51576 0.14800
H 	H 	0.50684 0.23778 0.61794 0.15400
H 	H 	0.37675 0.46394 0.58774 0.16900
H 	H 	0.00765 0.74121 0.60663 0.16500
H 	H 	0.62498 0.72340 0.22224 0.16000
H 	H 	0.59741 0.21568 0.26088 0.17400
H 	H 	0.04930 0.26314 0.36890 0.18500
H 	H 	0.81137 0.63750 0.78762 0.07200
H 	H 	0.11599 0.70595 0.24584 0.18200
H 	H 	0.28592 0.92013 0.09389 0.03900
H 	H 	0.77335 0.44701 0.08446 0.03600
H 	H 	0.73596 0.00654 0.32887 0.09600
H 	H 	0.26730 0.42371 0.23998 0.02400
H 	H 	0.83218 0.16501 0.08627 0.16600
H 	H 	0.29984 0.56533 0.26038 0.16600
H 	H 	0.86079 0.32735 0.78461 0.08000
H 	H 	0.36688 0.27070 0.94124 0.06200
H 	H 	0.25604 0.81263 0.97321 0.04400
H 	H 	0.84336 0.74278 0.95379 0.04600
H 	H 	0.75089 0.33149 0.96637 0.03400
H 	H 	0.20092 0.12301 0.20963 0.06000
N 	N 	0.50120 1.00000 0.14791 -0.19500
N 	N 	0.00120 0.50000 0.14791 -0.16800
N 	N 	0.50127 1.00000 0.85204 -0.21800
N 	N 	0.00127 0.50000 0.85204 -0.17600
O 	O 	0.40982 0.90983 0.61881 -0.37000
O 	O 	0.59017 0.90983 0.61876 -0.35000
O 	O 	0.09017 0.59017 0.61876 -0.33700
O 	O 	0.09017 0.40983 0.61876 -0.33100
O 	O 	0.59019 0.09018 0.38119 -0.34200
O 	O 	0.59019 0.90982 0.38119 -0.34200
O 	O 	0.09019 0.59018 0.38119 -0.35800
O 	O 	0.09019 0.40982 0.38119 -0.34500
O 	O 	0.32769 0.16891 0.18205 -0.14800
O 	O 	0.44307 0.76577 0.27402 -0.16400
O 	O 	0.86791 0.69791 0.19558 -0.18000
O 	O 	0.40982 0.09017 0.61881 -0.33400
O 	O 	0.91623 0.27581 0.23503 -0.17600
O 	O 	0.80180 0.12398 0.84335 -0.24200
O 	O 	0.30415 0.62453 0.88346 -0.23600
O 	O 	0.68960 0.00407 0.73871 -0.23500
O 	O 	0.19427 0.51175 0.74085 -0.26000
O 	O 	0.33828 0.97550 0.86591 -0.29800
O 	O 	0.83700 0.48244 0.86512 -0.30100
O 	O 	0.89824 0.96855 0.85740 -0.19000
O 	O 	0.52203 0.21854 0.99507 -0.17300
O 	O 	0.40937 0.49277 0.81512 -0.18700
O 	O 	0.90982 0.40983 0.61881 -0.37000
O 	O 	0.08748 0.82119 0.06842 -0.16700
O 	O 	0.82698 0.93376 0.61431 -0.27500
O 	O 	0.52311 0.22614 0.71453 -0.25900
O 	O 	0.31329 0.44336 0.57448 -0.27600
O 	O 	0.02143 0.73225 0.70488 -0.26800
O 	O 	0.63159 0.77467 0.27400 -0.24800
O 	O 	0.66550 0.21531 0.24879 -0.28200
O 	O 	0.10412 0.24768 0.31343 -0.25400
O 	O 	0.18421 0.70237 0.24447 -0.28100
O 	O 	0.30478 0.99517 0.24601 -0.19800
O 	O 	0.90982 0.59017 0.61881 -0.36600
O 	O 	0.80577 0.50204 0.25329 -0.18500
O 	O 	0.73111 0.91509 0.19584 -0.14600
O 	O 	0.17585 0.36445 0.12782 -0.15900
O 	O 	0.80486 0.11855 0.13827 -0.24700
O 	O 	0.31227 0.58032 0.16274 -0.27200
O 	O 	0.40984 0.90983 0.38124 -0.33600
O 	O 	0.40984 0.09017 0.38124 -0.30200
O 	O 	0.90984 0.40983 0.38124 -0.34000
O 	O 	0.90984 0.59017 0.38124 -0.33500
O 	O 	0.59017 0.09017 0.61876 -0.32700
