data_crystal

_cell_length_a 19.15119
_cell_length_b 7.13683
_cell_length_c 17.71284
_cell_angle_alpha 89.91408
_cell_angle_beta  109.14108
_cell_angle_gamma 90.03396

_symmetry_space_group_name_	'P 1'
_symmetry_space_group_name_H-M	'P 1'

loop_
_symmetry_equiv_pos_as_xyz
  x,y,z

loop_
_atom_site_label
_atom_site_type_symbol
_atom_site_fract_x
_atom_site_fract_y
_atom_site_fract_z
_atom_site_charge
O 	O 	0.56231 0.50577 0.43967 -0.48100
O 	O 	0.43769 0.00577 0.56033 -0.48700
O 	O 	0.41165 0.16915 0.40533 -0.47100
O 	O 	0.58835 0.66915 0.59467 -0.47000
C 	C 	0.38490 0.34540 0.38279 0.28300
C 	C 	0.61532 0.84532 0.61701 0.28900
O 	O 	0.56014 0.17561 0.43001 -0.48800
O 	O 	0.43986 0.67561 0.56999 -0.48800
O 	O 	0.58724 0.01210 0.58520 -0.46900
O 	O 	0.41276 0.51210 0.41480 -0.46400
C 	C 	0.58051 0.34486 0.41473 0.34400
C 	C 	0.41933 0.84472 0.58512 0.35100
O 	O 	0.50872 0.34142 0.55089 -0.62700
O 	O 	0.49128 0.84142 0.44911 -0.62400
V 	V 	0.49838 0.06393 0.49056 1.79900
V 	V 	0.50162 0.56393 0.50944 1.80000
C 	C 	0.19978 0.01698 0.89046 0.03900
C 	C 	0.80018 0.51711 0.10926 0.04500
C 	C 	0.13154 0.91658 0.86630 -0.11100
C 	C 	0.86819 0.41578 0.13338 -0.11600
C 	C 	0.11217 0.80189 0.79648 0.04600
C 	C 	0.88706 0.29938 0.20282 0.04800
C 	C 	0.16158 0.78739 0.75163 -0.01800
C 	C 	0.83748 0.28458 0.24747 -0.02100
C 	C 	0.22688 0.89752 0.77280 0.00500
C 	C 	0.77258 0.39611 0.22656 0.00500
C 	C 	0.24456 0.01697 0.84003 -0.01100
C 	C 	0.75529 0.51676 0.15958 -0.01000
C 	C 	0.14703 0.66646 0.68498 -0.03100
C 	C 	0.85147 0.16194 0.31366 -0.03000
C 	C 	0.19587 0.65070 0.64206 -0.04700
C 	C 	0.80251 0.14604 0.35644 -0.05100
C 	C 	0.25974 0.75951 0.66199 0.00500
C 	C 	0.73916 0.25665 0.33694 0.00900
C 	C 	0.27516 0.88679 0.72650 0.00100
C 	C 	0.72429 0.38555 0.27288 -0.00800
C 	C 	0.33888 0.00209 0.74446 -0.02700
C 	C 	0.66104 0.50235 0.25528 -0.01200
C 	C 	0.35414 0.12891 0.80922 0.01700
C 	C 	0.64594 0.62951 0.19049 0.01400
C 	C 	0.30739 0.13346 0.85577 -0.06000
C 	C 	0.69270 0.63398 0.14394 -0.05700
C 	C 	0.30813 0.74264 0.61779 -0.01400
C 	C 	0.69069 0.23984 0.38109 -0.01900
C 	C 	0.37074 0.85626 0.63470 -0.08800
C 	C 	0.62896 0.35625 0.36501 -0.08000
C 	C 	0.38532 0.98688 0.69696 0.00700
C 	C 	0.61486 0.48817 0.30312 -0.01000
H 	H 	0.09823 0.58022 0.66473 0.03100
H 	H 	0.89994 0.07443 0.33365 0.03000
H 	H 	0.18306 0.55383 0.59226 0.03500
H 	H 	0.81488 0.04784 0.40586 0.03500
H 	H 	0.29611 0.64426 0.56877 0.03400
H 	H 	0.70183 0.13900 0.42935 0.03600
H 	H 	0.43389 0.07368 0.70807 0.03400
H 	H 	0.56680 0.57659 0.29249 0.04100
H 	H 	0.32086 0.23268 0.90432 0.04000
H 	H 	0.67942 0.73371 0.09547 0.04000
C 	C 	0.74663 0.00719 0.82694 -0.07700
C 	C 	0.25264 0.51568 0.17438 -0.05800
H 	H 	0.73907 0.94601 0.88157 0.04200
H 	H 	0.25992 0.46443 0.11811 0.03500
H 	H 	0.75826 0.15921 0.83845 0.04500
H 	H 	0.23993 0.66805 0.16657 0.04300
C 	C 	0.67428 0.98199 0.75482 -0.04300
C 	C 	0.32589 0.48625 0.24517 -0.05900
H 	H 	0.65221 0.12279 0.73205 0.04500
H 	H 	0.34883 0.62565 0.26882 0.05200
H 	H 	0.63169 0.91273 0.77553 0.03700
H 	H 	0.36757 0.41799 0.22284 0.03900
H 	H 	0.78785 0.62834 0.84695 0.04500
H 	H 	0.21569 0.13581 0.14938 0.04400
H 	H 	0.67745 0.60606 0.74862 0.04400
H 	H 	0.32505 0.11036 0.24912 0.04300
C 	C 	0.79221 0.69869 0.79261 -0.05700
C 	C 	0.20999 0.19901 0.20436 -0.05500
C 	C 	0.82141 0.99773 0.73400 -0.06900
C 	C 	0.17763 0.48547 0.26720 -0.07300
C 	C 	0.81273 0.91081 0.81058 -0.03100
C 	C 	0.18740 0.41030 0.18928 -0.03600
H 	H 	0.87045 0.93522 0.72382 0.04300
H 	H 	0.13234 0.40745 0.27959 0.04200
H 	H 	0.83362 0.15008 0.74362 0.04300
H 	H 	0.15990 0.63478 0.25893 0.04700
C 	C 	0.68790 0.86410 0.68663 -0.04200
C 	C 	0.31283 0.36443 0.31273 -0.03800
C 	C 	0.71810 0.67264 0.72414 -0.05300
C 	C 	0.28359 0.17328 0.27333 -0.05500
C 	C 	0.74896 0.97097 0.66098 0.00200
C 	C 	0.25170 0.46937 0.33851 -0.00300
H 	H 	0.72652 0.11502 0.64454 0.03300
H 	H 	0.27176 0.61638 0.35172 0.03600
H 	H 	0.83686 0.62606 0.77672 0.04700
H 	H 	0.16585 0.11951 0.21865 0.04600
H 	H 	0.72442 0.57393 0.67859 0.04600
H 	H 	0.27647 0.06974 0.31667 0.04400
O 	O 	0.08722 0.27182 0.08523 -0.48100
O 	O 	0.91278 0.77182 0.91477 -0.48100
O 	O 	0.93986 0.59554 0.06999 -0.48900
O 	O 	0.06014 0.09554 0.93001 -0.49200
C 	C 	0.91849 0.42639 0.08448 0.35300
C 	C 	0.08146 0.92660 0.91545 0.35600
O 	O 	0.08834 0.60193 0.09468 -0.48500
O 	O 	0.91166 0.10193 0.90532 -0.49000
O 	O 	0.06231 0.76541 0.93966 -0.48200
O 	O 	0.93769 0.26541 0.06034 -0.48300
C 	C 	0.11598 0.43135 0.11803 0.31700
C 	C 	0.88399 0.93148 0.88202 0.32200
O 	O 	0.99127 0.42963 0.94913 -0.63600
O 	O 	0.00873 0.92963 0.05087 -0.63500
V 	V 	0.00162 0.70715 0.00944 1.79800
V 	V 	0.99838 0.20715 0.99056 1.79800
C 	C 	0.22781 0.11206 0.97260 -0.06000
C 	C 	0.29365 0.00668 0.02979 -0.15200
H 	H 	0.27643 0.86325 0.04068 0.05900
H 	H 	0.34016 0.99566 0.00579 0.05800
H 	H 	0.31382 0.08188 0.08776 0.05000
H 	H 	0.24193 0.26093 0.96678 0.03900
H 	H 	0.18625 0.11860 0.00325 0.04500
C 	C 	0.77250 0.61364 0.02727 -0.06400
C 	C 	0.70657 0.50962 0.96969 -0.14100
H 	H 	0.72332 0.36543 0.95938 0.05300
H 	H 	0.65958 0.50067 0.99303 0.05300
H 	H 	0.68739 0.58454 0.91151 0.04900
H 	H 	0.75866 0.76253 0.03333 0.04100
H 	H 	0.81412 0.62032 0.99667 0.04600
C 	C 	0.76198 0.89850 0.58344 -0.04900
C 	C 	0.81901 0.74176 0.59253 -0.14500
H 	H 	0.87591 0.79986 0.61227 0.05100
H 	H 	0.81549 0.63163 0.63481 0.05500
H 	H 	0.80987 0.67505 0.53345 0.05600
H 	H 	0.70887 0.85275 0.53929 0.04400
H 	H 	0.78095 0.01897 0.55534 0.02900
C 	C 	0.24061 0.40511 0.41770 -0.05400
C 	C 	0.21670 0.20175 0.42141 -0.14300
H 	H 	0.17409 0.15759 0.36504 0.05300
H 	H 	0.26530 0.10725 0.43592 0.06100
H 	H 	0.19297 0.18695 0.47053 0.05300
H 	H 	0.29263 0.42802 0.46807 0.04200
H 	H 	0.19835 0.49769 0.42893 0.03200
C 	C 	0.03829 0.69754 0.76925 -0.06000
C 	C 	0.04740 0.49152 0.79517 -0.13700
H 	H 	0.07879 0.41168 0.76333 0.05900
H 	H 	0.07752 0.47924 0.86014 0.08100
H 	H 	0.99211 0.42573 0.78186 0.06000
H 	H 	0.99706 0.76352 0.79250 0.04800
H 	H 	0.01179 0.70827 0.70353 0.03400
C 	C 	0.96057 0.19337 0.22987 -0.06600
C 	C 	0.95076 0.98803 0.20322 -0.12900
H 	H 	0.91892 0.90799 0.23459 0.05900
H 	H 	0.92078 0.97759 0.13816 0.08100
H 	H 	0.00582 0.92105 0.21649 0.05900
H 	H 	0.00212 0.25925 0.20700 0.04900
H 	H 	0.98702 0.20235 0.29566 0.03600
C 	C 	0.41980 0.26153 0.83132 -0.06000
C 	C 	0.40432 0.43210 0.77614 -0.14500
H 	H 	0.39166 0.38985 0.71278 0.06800
H 	H 	0.35671 0.51173 0.78234 0.06400
H 	H 	0.45344 0.52538 0.79285 0.05800
H 	H 	0.43234 0.31287 0.89362 0.03400
H 	H 	0.47068 0.18825 0.83063 0.03500
C 	C 	0.58028 0.76205 0.16815 -0.06300
C 	C 	0.59594 0.93345 0.22263 -0.13100
H 	H 	0.60903 0.89214 0.28620 0.06600
H 	H 	0.64333 0.01294 0.21569 0.05700
H 	H 	0.54675 0.02647 0.20589 0.05200
H 	H 	0.56749 0.81229 0.10561 0.03600
H 	H 	0.52948 0.68905 0.16939 0.03700
