data_crystal

_cell_length_a 19.06316
_cell_length_b 11.02016
_cell_length_c 18.73390
_cell_angle_alpha 90.24588
_cell_angle_beta  89.49099
_cell_angle_gamma 89.80739

_symmetry_space_group_name_	'P 1'
_symmetry_space_group_name_H-M	'P 1'

loop_
_symmetry_equiv_pos_as_xyz
  x,y,z

loop_
_atom_site_label
_atom_site_type_symbol
_atom_site_fract_x
_atom_site_fract_y
_atom_site_fract_z
_atom_site_charge
C 	C 	0.73060 0.37656 0.14621 0.43300
C 	C 	0.28880 0.32891 0.86093 0.31200
C 	C 	0.23060 0.87656 0.14621 0.43000
C 	C 	0.78881 0.82889 0.86093 0.31100
C 	C 	0.52971 0.37318 0.92195 -0.05700
C 	C 	0.50675 0.39387 0.06858 -0.04900
C 	C 	0.02972 0.87317 0.92195 -0.06000
C 	C 	0.00675 0.89387 0.06857 -0.06100
C 	C 	0.03206 0.98664 0.95490 -0.01300
C 	C 	0.01690 0.99708 0.02738 -0.01800
C 	C 	0.53205 0.48664 0.95491 -0.02300
C 	C 	0.51689 0.49708 0.02738 -0.03200
C 	C 	0.77943 0.84152 0.93782 -0.09600
C 	C 	0.25443 0.92205 0.07799 -0.13700
C 	C 	0.27942 0.34155 0.93782 -0.09900
C 	C 	0.75443 0.42207 0.07799 -0.15100
C 	C 	0.71488 0.82128 0.97104 0.05000
C 	C 	0.30100 0.85428 0.03502 0.07000
C 	C 	0.21488 0.32130 0.97104 0.05000
C 	C 	0.80102 0.35434 0.03503 0.07200
C 	C 	0.70436 0.84936 0.04222 0.02200
C 	C 	0.30191 0.86905 0.96161 0.00900
C 	C 	0.20436 0.34937 0.04222 0.02000
C 	C 	0.80195 0.36911 0.96162 0.00900
C 	C 	0.82567 0.90408 0.05271 0.01500
C 	C 	0.21445 0.02647 0.97337 -0.01200
C 	C 	0.32567 0.40407 0.05271 0.01100
C 	C 	0.71443 0.52647 0.97337 -0.00200
C 	C 	0.83621 0.87538 0.98060 -0.01100
C 	C 	0.21633 0.01628 0.04695 0.00700
C 	C 	0.33621 0.37539 0.98060 -0.01200
C 	C 	0.71631 0.51628 0.04695 0.02000
C 	C 	0.64279 0.86065 0.95074 -0.11800
C 	C 	0.31035 0.71968 0.02872 -0.13300
C 	C 	0.14278 0.36066 0.95075 -0.11900
C 	C 	0.81044 0.21973 0.02873 -0.13400
C 	C 	0.63077 0.89081 0.02935 0.01400
C 	C 	0.31140 0.73594 0.94822 0.03100
C 	C 	0.13076 0.39081 0.02936 0.01400
C 	C 	0.81151 0.23602 0.94822 0.02900
C 	C 	0.75789 0.90048 0.08273 -0.13200
C 	C 	0.25481 0.94871 0.92968 -0.11100
C 	C 	0.25788 0.40048 0.08273 -0.13000
C 	C 	0.75482 0.44872 0.92968 -0.12000
C 	C 	0.53067 0.15637 0.14761 0.40900
C 	C 	0.46733 0.15454 0.85388 0.41200
C 	C 	0.03067 0.65637 0.14761 0.40200
C 	C 	0.96733 0.65453 0.85388 0.41300
C 	C 	0.44462 0.15438 0.56221 -0.07700
C 	C 	0.48370 0.15619 0.41669 -0.12300
C 	C 	0.94462 0.65438 0.56221 -0.08000
C 	C 	0.98370 0.65619 0.41669 -0.11500
C 	C 	0.46042 0.04686 0.52615 0.02200
C 	C 	0.47935 0.04774 0.45531 0.04900
C 	C 	0.96042 0.54686 0.52615 0.04000
C 	C 	0.97935 0.54774 0.45531 0.05900
C 	C 	0.45040 0.25847 0.44725 0.02900
C 	C 	0.43384 0.25888 0.52092 -0.01400
C 	C 	0.95040 0.75847 0.44725 0.02800
C 	C 	0.93384 0.75888 0.52092 -0.01000
C 	C 	0.51203 0.94939 0.54380 -0.06800
C 	C 	0.53336 0.95146 0.46619 -0.08300
C 	C 	0.01204 0.44939 0.54380 -0.09100
C 	C 	0.03336 0.45146 0.46619 -0.09100
C 	C 	0.75473 0.91587 0.57586 -0.14900
C 	C 	0.25213 0.94091 0.41717 -0.12400
C 	C 	0.25472 0.41587 0.57586 -0.15000
C 	C 	0.75213 0.44091 0.41717 -0.13700
C 	C 	0.80839 0.97373 0.53881 0.08700
C 	C 	0.20654 0.01879 0.45564 0.06200
C 	C 	0.30839 0.47374 0.53881 0.07900
C 	C 	0.70654 0.51879 0.45564 0.07300
C 	C 	0.80833 0.97952 0.46554 0.05600
C 	C 	0.20860 0.01998 0.52835 0.04200
C 	C 	0.30833 0.47953 0.46555 0.04300
C 	C 	0.70860 0.51998 0.52835 0.04900
C 	C 	0.70174 0.86391 0.46252 0.00500
C 	C 	0.31479 0.90575 0.52798 0.00700
C 	C 	0.20174 0.36390 0.46252 0.00100
C 	C 	0.81479 0.40575 0.52798 0.00400
C 	C 	0.70127 0.85974 0.53709 0.01300
C 	C 	0.31228 0.89954 0.45296 0.00700
C 	C 	0.20127 0.35974 0.53709 0.01400
C 	C 	0.81228 0.39953 0.45296 0.00800
C 	C 	0.83193 0.10172 0.54754 -0.13700
C 	C 	0.12989 0.05689 0.46004 -0.14300
C 	C 	0.33191 0.60173 0.54755 -0.12900
C 	C 	0.62989 0.55689 0.46004 -0.13300
C 	C 	0.74215 0.96785 0.14807 0.43500
C 	C 	0.25958 0.97467 0.85430 0.43500
C 	C 	0.24215 0.46784 0.14807 0.41900
C 	C 	0.75958 0.47467 0.85431 0.42300
C 	C 	0.83206 0.10880 0.46691 -0.07700
C 	C 	0.13344 0.04816 0.54084 -0.06800
C 	C 	0.33204 0.60882 0.46692 -0.06700
C 	C 	0.63344 0.54816 0.54084 -0.05900
C 	C 	0.75369 0.92850 0.42622 -0.13900
C 	C 	0.25839 0.95696 0.56679 -0.12600
C 	C 	0.25369 0.42851 0.42622 -0.13300
C 	C 	0.75839 0.45696 0.56679 -0.13400
C 	C 	0.73038 0.38266 0.35086 0.42700
C 	C 	0.27016 0.37911 0.64804 0.42800
C 	C 	0.23038 0.88266 0.35086 0.42400
C 	C 	0.77016 0.87911 0.64804 0.42900
C 	C 	0.52858 0.15632 0.35167 0.41100
C 	C 	0.43440 0.15196 0.63972 0.30400
C 	C 	0.02857 0.65632 0.35167 0.40600
C 	C 	0.93441 0.65197 0.63972 0.30600
C 	C 	0.74154 0.97281 0.35468 0.43900
C 	C 	0.26060 0.97753 0.64311 0.43800
C 	C 	0.24154 0.47280 0.35468 0.42200
C 	C 	0.76060 0.47753 0.64311 0.42600
C 	C 	0.49087 0.15944 0.92808 -0.12600
C 	C 	0.49806 0.16963 0.07738 -0.12400
C 	C 	0.99087 0.65943 0.92808 -0.12200
C 	C 	0.99806 0.66963 0.07738 -0.11500
C 	C 	0.51029 0.26932 0.96141 0.04300
C 	C 	0.50617 0.27753 0.03678 0.04400
C 	C 	0.01030 0.76931 0.96141 0.03900
C 	C 	0.00617 0.77753 0.03677 0.04100
C 	C 	0.47686 0.06367 0.04360 -0.00800
C 	C 	0.47399 0.05803 0.97035 -0.00900
C 	C 	0.97686 0.56367 0.04360 0.00200
C 	C 	0.97399 0.55803 0.97035 0.00400
Cr	Cr	0.77201 0.16967 0.25009 1.53600
Cr	Cr	0.22799 0.16967 0.74991 1.53200
Cr	Cr	0.27201 0.66967 0.25009 1.53600
Cr	Cr	0.72799 0.66967 0.74991 1.53300
Cr	Cr	0.61500 0.32326 0.24926 1.53700
Cr	Cr	0.38500 0.32326 0.75074 1.53100
Cr	Cr	0.11500 0.82326 0.24926 1.53700
Cr	Cr	0.88500 0.82326 0.75074 1.53200
Cr	Cr	0.61671 0.01076 0.25084 1.53200
Cr	Cr	0.38329 0.01076 0.74916 1.53000
Cr	Cr	0.11671 0.51076 0.25084 1.53600
Cr	Cr	0.88329 0.51076 0.74916 1.53500
H 	H 	0.46523 0.98288 0.07406 0.04300
H 	H 	0.45631 0.97340 0.94714 0.04700
H 	H 	0.96523 0.48288 0.07406 0.03500
H 	H 	0.95631 0.47340 0.94714 0.03700
H 	H 	0.44335 0.34051 0.41734 0.03700
H 	H 	0.41757 0.34171 0.54657 0.05900
H 	H 	0.94336 0.84050 0.41734 0.04100
H 	H 	0.91758 0.84171 0.54657 0.06000
H 	H 	0.98638 0.36318 0.55971 0.05800
H 	H 	0.08657 0.48914 0.45783 0.06500
H 	H 	0.48638 0.86318 0.55971 0.05100
H 	H 	0.58657 0.98914 0.45783 0.06700
H 	H 	0.55438 0.98086 0.57985 0.06300
H 	H 	0.52119 0.86602 0.43712 0.05100
H 	H 	0.05438 0.48087 0.57985 0.06300
H 	H 	0.02119 0.36602 0.43712 0.04900
H 	H 	0.65803 0.82870 0.43329 0.02900
H 	H 	0.35907 0.86682 0.55533 0.04200
H 	H 	0.15804 0.32870 0.43329 0.02900
H 	H 	0.85907 0.36682 0.55533 0.04100
H 	H 	0.65848 0.81675 0.56473 0.02800
H 	H 	0.35334 0.85112 0.42436 0.03100
H 	H 	0.15848 0.31674 0.56473 0.02700
H 	H 	0.85334 0.35111 0.42436 0.03000
H 	H 	0.79106 0.15947 0.57365 0.07600
H 	H 	0.12138 0.15033 0.44161 0.07000
H 	H 	0.29103 0.65947 0.57365 0.07700
H 	H 	0.62138 0.65033 0.44160 0.06900
H 	H 	0.79013 0.16915 0.44681 0.06000
H 	H 	0.12373 0.13442 0.56921 0.04700
H 	H 	0.29011 0.66916 0.44681 0.06000
H 	H 	0.62373 0.63443 0.56921 0.04700
H 	H 	0.88444 0.12066 0.44129 0.06000
H 	H 	0.10527 0.96964 0.56469 0.07800
H 	H 	0.38442 0.62069 0.44130 0.05900
H 	H 	0.60527 0.46965 0.56469 0.07000
H 	H 	0.54103 0.36824 0.86535 0.04500
H 	H 	0.49350 0.40757 0.12424 0.03700
H 	H 	0.04104 0.86823 0.86535 0.04600
H 	H 	0.99350 0.90757 0.12424 0.04700
H 	H 	0.04279 0.06697 0.92367 0.01300
H 	H 	0.01141 0.08502 0.05196 0.01100
H 	H 	0.54278 0.56697 0.92367 0.02300
H 	H 	0.51140 0.58502 0.05196 0.02300
H 	H 	0.86873 0.94130 0.08268 0.03600
H 	H 	0.17964 0.09316 0.95070 0.03800
H 	H 	0.36873 0.44127 0.08268 0.03300
H 	H 	0.67961 0.59313 0.95069 0.03700
H 	H 	0.88713 0.88997 0.95683 0.04600
H 	H 	0.18178 0.07273 0.07892 0.03100
H 	H 	0.38713 0.38998 0.95683 0.04300
H 	H 	0.68175 0.57271 0.07892 0.03100
H 	H 	0.11085 0.28397 0.93028 0.04900
H 	H 	0.76425 0.16882 0.04916 0.06900
H 	H 	0.61086 0.78396 0.93027 0.05100
H 	H 	0.26416 0.66882 0.04918 0.07200
H 	H 	0.64298 0.94234 0.91609 0.06600
H 	H 	0.36166 0.68916 0.05009 0.05700
H 	H 	0.14296 0.44235 0.91610 0.06200
H 	H 	0.86176 0.18925 0.05011 0.05500
H 	H 	0.62255 0.98928 0.03979 0.04000
H 	H 	0.36309 0.71411 0.92324 0.01800
H 	H 	0.12254 0.48928 0.03981 0.03500
H 	H 	0.86323 0.21428 0.92327 0.01700
O 	O 	0.78752 0.04281 0.17044 -0.50700
O 	O 	0.21248 0.04281 0.82956 -0.50700
O 	O 	0.28752 0.54281 0.17044 -0.49400
O 	O 	0.71248 0.54281 0.82956 -0.49500
O 	O 	0.55661 0.25288 0.32398 -0.50900
O 	O 	0.44339 0.25288 0.67602 -0.47800
O 	O 	0.05661 0.75288 0.32398 -0.50800
O 	O 	0.94339 0.75288 0.67602 -0.47600
O 	O 	0.54595 0.05121 0.33086 -0.49500
O 	O 	0.45405 0.05121 0.66914 -0.44600
O 	O 	0.04595 0.55121 0.33086 -0.49000
O 	O 	0.95405 0.55121 0.66914 -0.44000
O 	O 	0.68139 0.95948 0.32551 -0.52300
O 	O 	0.31861 0.95948 0.67449 -0.52400
O 	O 	0.18139 0.45948 0.32551 -0.52600
O 	O 	0.81861 0.45948 0.67449 -0.52700
O 	O 	0.66790 0.16790 0.25006 -0.74100
O 	O 	0.33210 0.16790 0.74994 -0.75700
O 	O 	0.16790 0.66790 0.25006 -0.73800
O 	O 	0.83210 0.66790 0.74994 -0.75400
O 	O 	0.76564 0.29210 0.17502 -0.53400
O 	O 	0.23436 0.29210 0.82498 -0.48800
O 	O 	0.26564 0.79210 0.17502 -0.53300
O 	O 	0.73436 0.79210 0.82498 -0.48600
O 	O 	0.67019 0.40884 0.16854 -0.49000
O 	O 	0.32981 0.40884 0.83146 -0.44500
O 	O 	0.17019 0.90884 0.16854 -0.48600
O 	O 	0.82981 0.90884 0.83146 -0.44100
O 	O 	0.55662 0.25141 0.17516 -0.52700
O 	O 	0.44338 0.25141 0.82484 -0.52800
O 	O 	0.05662 0.75141 0.17516 -0.52600
O 	O 	0.94338 0.75141 0.82484 -0.52500
O 	O 	0.54596 0.04962 0.17032 -0.48900
O 	O 	0.45404 0.04962 0.82968 -0.49000
O 	O 	0.04596 0.54962 0.17032 -0.48300
O 	O 	0.95404 0.54962 0.82968 -0.48300
O 	O 	0.68139 0.95801 0.17669 -0.53100
O 	O 	0.31861 0.95801 0.82331 -0.52800
O 	O 	0.18139 0.45801 0.17669 -0.53400
O 	O 	0.81861 0.45801 0.82331 -0.53200
O 	O 	0.78751 0.04439 0.33097 -0.50100
O 	O 	0.21249 0.04439 0.66903 -0.50100
O 	O 	0.28751 0.54439 0.33097 -0.48800
O 	O 	0.71249 0.54439 0.66903 -0.48900
O 	O 	0.76563 0.29357 0.32384 -0.53100
O 	O 	0.23437 0.29357 0.67616 -0.53300
O 	O 	0.26563 0.79357 0.32384 -0.53000
O 	O 	0.73437 0.79357 0.67616 -0.53100
O 	O 	0.67019 0.41042 0.32908 -0.47700
O 	O 	0.32981 0.41042 0.67092 -0.48200
O 	O 	0.17019 0.91042 0.32908 -0.47300
O 	O 	0.82981 0.91042 0.67092 -0.47800
C 	C 	0.90324 0.11346 0.58116 0.29700
O 	O 	0.95483 0.06474 0.55416 -0.26200
O 	O 	0.90986 0.18158 0.64377 -0.33100
H 	H 	0.95994 0.18408 0.66149 0.13400
C 	C 	0.07778 0.97415 0.42862 0.34000
O 	O 	0.07845 0.86716 0.44477 -0.24500
O 	O 	0.03138 0.02046 0.37799 -0.35500
H 	H 	0.00543 0.95644 0.35016 0.14700
C 	C 	0.40322 0.61351 0.58116 0.29600
O 	O 	0.45481 0.56466 0.55418 -0.25800
O 	O 	0.40984 0.68179 0.64375 -0.32900
H 	H 	0.45992 0.68429 0.66148 0.13400
C 	C 	0.57778 0.47415 0.42862 0.31700
O 	O 	0.57845 0.36716 0.44477 -0.24000
O 	O 	0.53138 0.52046 0.37799 -0.33200
H 	H 	0.50543 0.45643 0.35016 0.13700
C 	C 	0.57752 0.80795 0.06581 -0.15900
H 	H 	0.56942 0.83579 0.12216 0.05100
H 	H 	0.52674 0.81113 0.03742 0.05600
H 	H 	0.59691 0.71344 0.06545 0.05600
C 	C 	0.24906 0.67692 0.91042 -0.18100
H 	H 	0.25383 0.57724 0.91347 0.08300
H 	H 	0.19829 0.70448 0.93545 0.07300
H 	H 	0.24902 0.70340 0.85332 0.07400
C 	C 	0.07752 0.30794 0.06582 -0.15900
H 	H 	0.06942 0.33577 0.12217 0.04700
H 	H 	0.02674 0.31111 0.03744 0.05200
H 	H 	0.09692 0.21343 0.06545 0.05500
C 	C 	0.74921 0.17690 0.91040 -0.18000
H 	H 	0.75401 0.07723 0.91346 0.07800
H 	H 	0.69842 0.20442 0.93539 0.07100
H 	H 	0.74920 0.20337 0.85330 0.07100
