data_crystal

_cell_length_a 23.53740
_cell_length_b 8.67301
_cell_length_c 7.42657
_cell_angle_alpha 103.09521
_cell_angle_beta  94.22073
_cell_angle_gamma 92.45555

_symmetry_space_group_name_	'P 1'
_symmetry_space_group_name_H-M	'P 1'

loop_
_symmetry_equiv_pos_as_xyz
  x,y,z

loop_
_atom_site_label
_atom_site_type_symbol
_atom_site_fract_x
_atom_site_fract_y
_atom_site_fract_z
_atom_site_charge
C 	C 	0.49825 0.19955 0.45307 0.34200
C 	C 	0.70940 0.58414 0.65421 0.06700
C 	C 	0.23892 0.44462 0.63043 -0.08100
C 	C 	0.76825 0.57508 0.64269 -0.08200
C 	C 	0.20881 0.50046 0.49099 0.13500
C 	C 	0.79080 0.51244 0.47428 0.13000
C 	C 	0.49740 0.03158 0.42663 -0.08900
C 	C 	0.50251 0.96842 0.57341 -0.10100
C 	C 	0.39092 0.49602 0.50180 0.32600
C 	C 	0.60915 0.50690 0.49878 0.32500
C 	C 	0.88385 0.65128 0.51517 0.18600
C 	C 	0.50171 0.80045 0.54694 0.34500
C 	C 	0.11589 0.36008 0.43232 0.18700
C 	C 	0.87659 0.36832 0.43422 0.18300
C 	C 	0.12327 0.64187 0.54124 0.18500
C 	C 	0.93582 0.36428 0.42880 -0.04700
C 	C 	0.06392 0.64598 0.53939 -0.04700
C 	C 	0.96989 0.50720 0.48151 0.03000
C 	C 	0.02982 0.50340 0.47985 0.03200
C 	C 	0.94405 0.65341 0.53686 -0.04800
C 	C 	0.05555 0.35752 0.41907 -0.04900
C 	C 	0.96108 0.22058 0.36789 -0.01900
C 	C 	0.23805 0.55258 0.35495 -0.06200
C 	C 	0.03852 0.78952 0.60058 -0.01700
C 	C 	0.01987 0.21583 0.35392 0.00900
C 	C 	0.97944 0.79493 0.60552 0.01000
C 	C 	0.04004 0.06120 0.25914 0.11100
C 	C 	0.95850 0.94918 0.69866 0.10700
C 	C 	0.20666 0.60526 0.20075 0.14600
C 	C 	0.77686 0.40088 0.12841 0.12100
C 	C 	0.32709 0.35766 0.77248 0.09100
C 	C 	0.68922 0.67453 0.83049 0.09300
C 	C 	0.75400 0.45586 0.31178 -0.05200
C 	C 	0.29760 0.55142 0.36496 0.04800
C 	C 	0.69489 0.45530 0.32479 0.04100
C 	C 	0.32826 0.49455 0.50376 -0.09600
C 	C 	0.67192 0.51663 0.49425 -0.09500
C 	C 	0.29836 0.43685 0.63637 0.06600
Cu	Cu	0.50634 0.51738 0.68438 0.92800
Cu	Cu	0.49366 0.48262 0.31562 0.92700
H 	H 	0.93453 0.11132 0.32140 0.06400
H 	H 	0.54467 0.62212 0.05176 0.08700
H 	H 	0.02272 0.95264 0.28913 0.02300
H 	H 	0.97842 0.05864 0.67884 0.03000
H 	H 	0.16038 0.59708 0.18516 0.02500
H 	H 	0.82211 0.41605 0.11359 0.03000
H 	H 	0.36805 0.30801 0.74895 0.04000
H 	H 	0.64862 0.72884 0.83168 0.04700
H 	H 	0.06499 0.89843 0.65174 0.06800
H 	H 	0.32037 0.59449 0.26270 0.06300
H 	H 	0.66648 0.40741 0.20129 0.05900
H 	H 	0.21513 0.40189 0.73076 0.09800
H 	H 	0.79751 0.62228 0.76440 0.09600
H 	H 	0.49259 0.95961 0.28533 0.09000
H 	H 	0.50731 0.04039 0.71471 0.09900
H 	H 	0.45567 0.37705 0.94820 0.11000
N 	N 	0.85178 0.51036 0.47181 -0.17200
N 	N 	0.14779 0.50087 0.48732 -0.17400
N 	N 	0.48411 0.45642 0.03852 -0.19400
N 	N 	0.51589 0.54358 0.96148 -0.16200
O 	O 	0.50412 0.28613 0.61977 -0.37800
O 	O 	0.14292 0.22400 0.39611 -0.16300
O 	O 	0.84386 0.23149 0.40017 -0.17000
O 	O 	0.15651 0.77759 0.59818 -0.16700
O 	O 	0.07219 0.05239 0.13593 -0.16200
O 	O 	0.92240 0.95629 0.80971 -0.15000
O 	O 	0.23211 0.65803 0.08812 -0.17800
O 	O 	0.74532 0.33876 0.99069 -0.14900
O 	O 	0.30448 0.34310 0.91104 -0.15200
O 	O 	0.71879 0.69407 0.97699 -0.15100
O 	O 	0.49588 0.71387 0.38023 -0.38100
O 	O 	0.49341 0.25677 0.30836 -0.38000
O 	O 	0.50659 0.74323 0.69164 -0.37800
O 	O 	0.42323 0.51463 0.65573 -0.37400
O 	O 	0.57677 0.48537 0.34427 -0.37500
O 	O 	0.41253 0.48528 0.34432 -0.37100
O 	O 	0.58747 0.51472 0.65568 -0.37100
O 	O 	0.85723 0.78765 0.53044 -0.16300
