data_crystal

_cell_length_a 10.90965
_cell_length_b 10.98614
_cell_length_c 18.67582
_cell_angle_alpha 90.20899
_cell_angle_beta  89.50332
_cell_angle_gamma 60.05653

_symmetry_space_group_name_	'P 1'
_symmetry_space_group_name_H-M	'P 1'

loop_
_symmetry_equiv_pos_as_xyz
  x,y,z

loop_
_atom_site_label
_atom_site_type_symbol
_atom_site_fract_x
_atom_site_fract_y
_atom_site_fract_z
_atom_site_charge
C 	C 	0.23483 0.64600 0.60825 0.46400
C 	C 	0.67237 0.55497 0.79981 0.16400
C 	C 	0.70441 0.67607 0.81115 -0.17900
C 	C 	0.67202 0.65021 0.67538 -0.03600
C 	C 	0.82354 0.62334 0.68798 -0.12000
C 	C 	0.64626 0.54506 0.72003 -0.12100
C 	C 	0.67914 0.14860 0.66832 -0.29800
C 	C 	0.68998 0.16794 0.82857 0.11000
C 	C 	0.80078 0.10594 0.78185 -0.15100
C 	C 	0.78905 0.13990 0.70481 0.29500
C 	C 	0.17646 0.66221 0.68019 -0.19900
C 	C 	0.65493 0.62387 0.60043 0.38200
C 	C 	0.20120 0.66122 0.84085 0.08500
C 	C 	0.19703 0.56264 0.79987 -0.05800
C 	C 	0.22838 0.54923 0.72304 0.12000
C 	C 	0.59321 0.58555 0.31211 -0.24100
C 	C 	0.63134 0.66681 0.16078 0.06700
C 	C 	0.68805 0.53594 0.18804 -0.13000
C 	C 	0.69763 0.50361 0.26585 0.25700
C 	C 	0.67022 0.14327 0.33104 -0.22900
C 	C 	0.64303 0.16963 0.17552 -0.21300
C 	C 	0.55198 0.15261 0.21807 0.19900
C 	C 	0.62937 0.22559 0.60118 0.50400
C 	C 	0.57995 0.11765 0.29441 0.19900
C 	C 	0.11742 0.68296 0.34741 -0.17100
C 	C 	0.12661 0.68497 0.18820 -0.01200
C 	C 	0.04267 0.79078 0.23377 0.19000
C 	C 	0.08019 0.79470 0.30729 0.01900
C 	C 	0.70352 0.10185 0.89760 0.35400
C 	C 	0.72630 0.68987 0.88743 0.46800
C 	C 	0.12032 0.70596 0.90779 0.36400
C 	C 	0.67315 0.10989 0.10396 0.46700
C 	C 	0.69127 0.68861 0.09489 0.37400
C 	C 	0.21454 0.65192 0.40530 0.46400
C 	C 	0.09095 0.71098 0.11394 0.41000
C 	C 	0.60969 0.58008 0.39000 0.36300
C 	C 	0.62209 0.22135 0.39767 0.48100
C 	C 	0.57834 0.81488 0.78147 -0.00600
C 	C 	0.56376 0.80155 0.70051 -0.07000
C 	C 	0.84132 0.64447 0.76810 0.16500
Cr	Cr	0.39301 0.39805 0.50148 1.55300
Cr	Cr	0.39882 0.70798 0.50163 1.53400
Cr	Cr	0.70814 0.39394 0.49685 1.53600
Cr	Cr	0.93795 0.93845 0.00894 1.41100
Cr	Cr	0.62618 0.93703 0.99475 1.50100
Cr	Cr	0.93779 0.62576 0.00141 1.47700
H 	H 	0.59284 0.90659 0.79199 -0.00100
H 	H 	0.71545 0.43583 0.70029 0.09100
H 	H 	0.93171 0.54472 0.78736 -0.00600
H 	H 	0.90319 0.51380 0.67210 0.04800
H 	H 	0.90281 0.02243 0.79982 0.11800
H 	H 	0.60929 0.11782 0.69440 0.16900
H 	H 	0.16051 0.49488 0.82191 0.12200
H 	H 	0.29576 0.44383 0.70178 0.04200
H 	H 	0.47869 0.83850 0.80940 0.05100
H 	H 	0.10704 0.76737 0.70121 0.14000
H 	H 	0.75872 0.44829 0.15357 0.06900
H 	H 	0.48898 0.65953 0.29289 0.14900
H 	H 	0.72754 0.18239 0.19701 0.10900
H 	H 	0.75550 0.15043 0.30538 0.11800
H 	H 	0.95110 0.88551 0.21427 -0.16800
H 	H 	0.45349 0.82673 0.68947 0.05500
H 	H 	0.09478 0.88119 0.32446 0.05100
H 	H 	0.09663 0.60056 0.32957 0.15200
H 	H 	0.58280 0.87884 0.67131 0.00400
H 	H 	0.84428 0.69423 0.65393 0.01600
H 	H 	0.57597 0.57752 0.83104 0.03800
H 	H 	0.53540 0.56824 0.71291 0.07600
O 	O 	0.50711 0.25628 0.58030 -0.47200
O 	O 	0.52464 0.69537 0.42510 -0.50100
O 	O 	0.73589 0.50439 0.41598 -0.45000
O 	O 	0.69056 0.27782 0.42235 -0.53300
O 	O 	0.49999 0.49999 0.49998 -0.75300
O 	O 	0.08919 0.82587 0.93232 -0.39700
O 	O 	0.81907 0.05396 0.93144 -0.42400
O 	O 	0.60707 0.07644 0.91646 -0.34900
O 	O 	0.64711 0.80655 0.91769 -0.55500
O 	O 	0.83708 0.59386 0.91530 -0.48400
O 	O 	0.06477 0.63608 0.93255 -0.40100
O 	O 	0.28083 0.52719 0.57794 -0.51700
O 	O 	0.06825 0.82920 0.09294 -0.42800
O 	O 	0.79965 0.05704 0.08033 -0.48000
O 	O 	0.58613 0.07976 0.07708 -0.38000
O 	O 	0.62770 0.80963 0.06658 -0.53300
O 	O 	0.81614 0.59718 0.07592 -0.50900
O 	O 	0.04536 0.63917 0.08144 -0.40800
O 	O 	0.83398 0.83375 0.00170 -0.86500
O 	O 	0.26136 0.73899 0.58427 -0.49500
O 	O 	0.53259 0.69478 0.57437 -0.53000
O 	O 	0.74447 0.50375 0.57700 -0.48500
O 	O 	0.69852 0.27723 0.57162 -0.53300
O 	O 	0.49853 0.25692 0.41928 -0.44200
O 	O 	0.27288 0.52778 0.42868 -0.50600
O 	O 	0.25278 0.73963 0.42325 -0.49000
O 	O 	0.88912 0.16241 0.67105 -0.31500
H 	H 	0.95971 0.15235 0.70711 0.16400
O 	O 	0.55858 0.27918 0.81113 -0.23600
H 	H 	0.57025 0.33372 0.77226 0.15300
Cl	Cl	0.27835 0.76005 0.81029 -0.33800
O 	O 	0.81966 0.39013 0.29162 -0.30900
H 	H 	0.88706 0.34370 0.25125 0.14100
Cl	Cl	0.51199 0.82273 0.20711 -0.35100
Cl	Cl	0.38914 0.17652 0.18492 -0.15900
Cl	Cl	0.47843 0.05492 0.33952 -0.15200
Cl	Cl	0.28857 0.53573 0.21105 -0.25200
O 	O 	0.87740 0.74973 0.77922 -0.35800
H 	H 	0.81400 0.83293 0.75039 0.10100
Cl	Cl	0.81182 0.38830 0.83052 -0.35500
