data_crystal

_cell_length_a 19.67882
_cell_length_b 11.43376
_cell_length_c 18.71564
_cell_angle_alpha 89.99918
_cell_angle_beta  89.68545
_cell_angle_gamma 90.00068

_symmetry_space_group_name_	'P 1'
_symmetry_space_group_name_H-M	'P 1'

loop_
_symmetry_equiv_pos_as_xyz
  x,y,z

loop_
_atom_site_label
_atom_site_type_symbol
_atom_site_fract_x
_atom_site_fract_y
_atom_site_fract_z
_atom_site_charge
C 	C 	0.76152 0.52049 0.63812 0.33400
C 	C 	0.23848 0.52049 0.36187 0.33400
C 	C 	0.26152 0.02049 0.63812 0.35600
C 	C 	0.73848 0.02049 0.36187 0.35600
C 	C 	0.81615 0.11742 0.44979 -0.04800
C 	C 	0.18385 0.11742 0.55020 -0.04800
C 	C 	0.31616 0.61742 0.44979 -0.04900
C 	C 	0.68385 0.61742 0.55020 -0.04900
C 	C 	0.74983 0.05084 0.43833 -0.04100
C 	C 	0.25017 0.05084 0.56167 -0.04200
C 	C 	0.24983 0.55084 0.43833 -0.05200
C 	C 	0.75017 0.55084 0.56167 -0.05200
C 	C 	0.76599 0.08561 0.57560 -0.02500
C 	C 	0.23401 0.08559 0.42440 -0.02500
C 	C 	0.26599 0.58561 0.57560 -0.04400
C 	C 	0.73401 0.58559 0.42440 -0.04400
C 	C 	0.77969 0.95442 0.56088 -0.08400
C 	C 	0.22031 0.95441 0.43912 -0.08300
C 	C 	0.27969 0.45442 0.56088 -0.06600
C 	C 	0.72031 0.45441 0.43912 -0.06600
C 	C 	0.81791 0.15351 0.52918 -0.06800
C 	C 	0.18210 0.15351 0.47081 -0.06800
C 	C 	0.31791 0.65351 0.52918 -0.06500
C 	C 	0.68210 0.65351 0.47081 -0.06500
C 	C 	0.99686 0.20952 0.45911 -0.06100
C 	C 	0.00313 0.20952 0.54090 -0.06100
C 	C 	0.49686 0.70952 0.45911 -0.06000
C 	C 	0.50313 0.70952 0.54090 -0.06000
C 	C 	0.06630 0.39828 0.47220 -0.06100
C 	C 	0.93373 0.39835 0.52781 -0.06100
C 	C 	0.56630 0.89828 0.47220 -0.06100
C 	C 	0.43373 0.89835 0.52781 -0.06000
C 	C 	0.94381 0.40134 0.44639 -0.05200
C 	C 	0.05621 0.40134 0.55361 -0.05200
C 	C 	0.44381 0.90134 0.44639 -0.05200
C 	C 	0.55621 0.90134 0.55361 -0.05200
C 	C 	0.00871 0.33495 0.43043 -0.04600
C 	C 	0.99130 0.33496 0.56958 -0.04600
C 	C 	0.50871 0.83495 0.43043 -0.04800
C 	C 	0.49130 0.83496 0.56958 -0.04800
C 	C 	0.81937 0.02642 0.04621 -0.02600
C 	C 	0.18063 0.02644 0.95379 -0.02600
C 	C 	0.31937 0.52642 0.04621 -0.05000
C 	C 	0.68063 0.52644 0.95379 -0.05000
C 	C 	0.77511 0.12017 0.65020 0.33400
C 	C 	0.22489 0.12016 0.34980 0.33400
C 	C 	0.27511 0.62017 0.65020 0.33700
C 	C 	0.72489 0.62016 0.34980 0.33700
C 	C 	0.81858 0.02326 0.96552 -0.03400
C 	C 	0.18142 0.02328 0.03447 -0.03400
C 	C 	0.31858 0.52326 0.96552 -0.05300
C 	C 	0.68142 0.52328 0.03447 -0.05200
C 	C 	0.69143 0.01574 0.03223 -0.03700
C 	C 	0.30856 0.01575 0.96778 -0.03700
C 	C 	0.19143 0.51574 0.03223 -0.06200
C 	C 	0.80856 0.51575 0.96778 -0.06100
C 	C 	0.74502 0.20159 0.06123 -0.04600
C 	C 	0.25499 0.20161 0.93876 -0.04600
C 	C 	0.24502 0.70159 0.06123 -0.04800
C 	C 	0.75499 0.70161 0.93876 -0.04800
C 	C 	0.74938 0.07124 0.07555 -0.06800
C 	C 	0.25062 0.07125 0.92444 -0.06800
C 	C 	0.24938 0.57124 0.07555 -0.05500
C 	C 	0.75062 0.57125 0.92444 -0.05500
C 	C 	0.76061 0.10391 0.93619 -0.05600
C 	C 	0.23939 0.10394 0.06381 -0.05600
C 	C 	0.26061 0.60391 0.93619 -0.05000
C 	C 	0.73939 0.60394 0.06381 -0.05000
C 	C 	0.69378 0.04222 0.95103 -0.03000
C 	C 	0.30622 0.04227 0.04897 -0.03000
C 	C 	0.19378 0.54222 0.95103 -0.05100
C 	C 	0.80622 0.54227 0.04897 -0.05100
C 	C 	0.75792 0.21872 0.98015 -0.06400
C 	C 	0.24206 0.21874 0.01983 -0.06400
C 	C 	0.25792 0.71872 0.98015 -0.06400
C 	C 	0.74206 0.71874 0.01983 -0.06400
C 	C 	0.99884 0.47915 0.04068 -0.05300
C 	C 	0.00116 0.47915 0.95932 -0.05300
C 	C 	0.49884 0.97915 0.04068 -0.09100
C 	C 	0.50116 0.97915 0.95932 -0.09100
C 	C 	0.06788 0.29333 0.02492 -0.06400
C 	C 	0.93210 0.29333 0.97508 -0.06400
C 	C 	0.56788 0.79332 0.02492 -0.06400
C 	C 	0.43210 0.79333 0.97508 -0.06400
C 	C 	0.94757 0.28104 0.05543 -0.05000
C 	C 	0.05242 0.28104 0.94457 -0.05000
C 	C 	0.44757 0.78104 0.05543 -0.05200
C 	C 	0.55242 0.78104 0.94457 -0.05200
C 	C 	0.97051 0.34237 0.64592 0.32600
C 	C 	0.02950 0.34237 0.35409 0.32600
C 	C 	0.47051 0.84237 0.64592 0.32600
C 	C 	0.52950 0.84237 0.35409 0.32600
C 	C 	0.01100 0.35223 0.06936 -0.05200
C 	C 	0.98899 0.35223 0.93064 -0.05200
C 	C 	0.51100 0.85223 0.06936 -0.04600
C 	C 	0.48899 0.85223 0.93064 -0.04600
C 	C 	0.75979 0.53492 0.84810 0.33800
C 	C 	0.24021 0.53492 0.15190 0.33700
C 	C 	0.25979 0.03492 0.84810 0.36600
C 	C 	0.74021 0.03492 0.15190 0.36600
C 	C 	0.77415 0.13267 0.85884 0.33100
C 	C 	0.22585 0.13269 0.14115 0.33100
C 	C 	0.27415 0.63267 0.85884 0.32600
C 	C 	0.72585 0.63269 0.14115 0.32600
C 	C 	0.96752 0.35358 0.85421 0.32900
C 	C 	0.03248 0.35358 0.14580 0.32900
C 	C 	0.46752 0.85358 0.85421 0.32600
C 	C 	0.53248 0.85358 0.14580 0.32600
C 	C 	0.69220 0.12641 0.46972 -0.05400
C 	C 	0.30781 0.12638 0.53027 -0.05400
C 	C 	0.19220 0.62641 0.46972 -0.05500
C 	C 	0.80781 0.62638 0.53027 -0.05500
C 	C 	0.69252 0.11741 0.55104 -0.06400
C 	C 	0.30749 0.11739 0.44895 -0.06400
C 	C 	0.19252 0.61741 0.55104 -0.05900
C 	C 	0.80749 0.61739 0.44895 -0.06000
C 	C 	0.75629 0.93574 0.48294 -0.06600
C 	C 	0.24370 0.93573 0.51706 -0.06600
C 	C 	0.25629 0.43574 0.48294 -0.05100
C 	C 	0.74370 0.43573 0.51706 -0.05100
Cr	Cr	0.88569 0.49286 0.74531 1.51400
Cr	Cr	0.11431 0.49286 0.25469 1.51400
Cr	Cr	0.38569 0.99286 0.74531 1.50700
Cr	Cr	0.61431 0.99286 0.25469 1.50700
Cr	Cr	0.72988 0.33227 0.74819 1.51100
Cr	Cr	0.27012 0.33227 0.25181 1.51100
Cr	Cr	0.22988 0.83227 0.74819 1.51000
Cr	Cr	0.77012 0.83227 0.25181 1.51000
Cr	Cr	0.88812 0.17859 0.75301 1.51600
Cr	Cr	0.11188 0.17859 0.24699 1.51600
Cr	Cr	0.38812 0.67859 0.75301 1.51500
Cr	Cr	0.61188 0.67859 0.24699 1.51500
H 	H 	0.64183 0.11092 0.44755 0.05700
H 	H 	0.35817 0.11085 0.55244 0.05700
H 	H 	0.14183 0.61092 0.44755 0.05200
H 	H 	0.85817 0.61085 0.55244 0.05200
H 	H 	0.86898 0.14820 0.54944 0.06400
H 	H 	0.13103 0.14819 0.45054 0.06400
H 	H 	0.36898 0.64820 0.54944 0.06000
H 	H 	0.63103 0.64819 0.45054 0.06000
H 	H 	0.78632 0.86865 0.45515 0.05600
H 	H 	0.21366 0.86865 0.54486 0.05600
H 	H 	0.28632 0.36865 0.45515 0.05500
H 	H 	0.71366 0.36865 0.54486 0.05500
H 	H 	0.02941 0.14495 0.43497 0.07300
H 	H 	0.97059 0.14496 0.56504 0.07300
H 	H 	0.52941 0.64495 0.43497 0.06800
H 	H 	0.47058 0.64496 0.56504 0.06800
H 	H 	0.94578 0.17971 0.44397 0.04700
H 	H 	0.05421 0.17970 0.55603 0.04700
H 	H 	0.44578 0.67971 0.44397 0.04500
H 	H 	0.55421 0.67970 0.55603 0.04500
H 	H 	0.61299 0.85500 0.45708 0.03500
H 	H 	0.38699 0.85519 0.54300 0.03400
H 	H 	0.11299 0.35500 0.45708 0.03700
H 	H 	0.88699 0.35519 0.54300 0.03700
H 	H 	0.60045 0.86189 0.58139 0.02900
H 	H 	0.39955 0.86186 0.41864 0.02900
H 	H 	0.10045 0.36189 0.58139 0.03200
H 	H 	0.89955 0.36186 0.41864 0.03200
H 	H 	0.94914 0.49334 0.42778 0.04100
H 	H 	0.05088 0.49335 0.57219 0.04100
H 	H 	0.44914 0.99334 0.42778 0.03500
H 	H 	0.55088 0.99335 0.57219 0.03500
H 	H 	0.93265 0.48994 0.54515 0.04800
H 	H 	0.06751 0.48979 0.45483 0.04800
H 	H 	0.43265 0.98994 0.54515 0.04100
H 	H 	0.56751 0.98979 0.45483 0.04100
H 	H 	0.83423 0.93794 0.06415 0.02300
H 	H 	0.16577 0.93795 0.93585 0.02300
H 	H 	0.33423 0.43794 0.06415 0.04000
H 	H 	0.66577 0.43795 0.93585 0.04000
H 	H 	0.70509 0.21658 0.45642 0.05700
H 	H 	0.29493 0.21656 0.54357 0.05700
H 	H 	0.20509 0.71658 0.45642 0.05800
H 	H 	0.79493 0.71656 0.54357 0.05800
H 	H 	0.86014 0.08521 0.06520 0.03400
H 	H 	0.13986 0.08523 0.93479 0.03400
H 	H 	0.36014 0.58521 0.06520 0.03600
H 	H 	0.63986 0.58523 0.93479 0.03600
H 	H 	0.87045 0.04475 0.94714 0.04100
H 	H 	0.12955 0.04476 0.05286 0.04100
H 	H 	0.37045 0.54475 0.94714 0.04100
H 	H 	0.62955 0.54476 0.05286 0.04100
H 	H 	0.80995 0.93248 0.94681 0.02200
H 	H 	0.19006 0.93249 0.05319 0.02200
H 	H 	0.30995 0.43248 0.94681 0.03800
H 	H 	0.69006 0.43249 0.05319 0.03800
H 	H 	0.70041 0.92463 0.04059 0.02000
H 	H 	0.29958 0.92464 0.95945 0.02000
H 	H 	0.20041 0.42463 0.04059 0.03800
H 	H 	0.79958 0.42464 0.95945 0.03800
H 	H 	0.68964 0.96024 0.91947 0.01500
H 	H 	0.31038 0.96031 0.08055 0.01500
H 	H 	0.18964 0.46024 0.91947 0.03200
H 	H 	0.81038 0.46031 0.08055 0.03200
H 	H 	0.69379 0.23476 0.07631 0.03500
H 	H 	0.30623 0.23476 0.92369 0.03500
H 	H 	0.19379 0.73476 0.07631 0.03400
H 	H 	0.80623 0.73476 0.92369 0.03400
H 	H 	0.78322 0.24995 0.09328 0.03100
H 	H 	0.21680 0.24997 0.90668 0.03100
H 	H 	0.28322 0.74995 0.09328 0.03100
H 	H 	0.71680 0.74997 0.90668 0.03100
H 	H 	0.80813 0.25204 0.97504 0.03800
H 	H 	0.19183 0.25202 0.02492 0.03800
H 	H 	0.30813 0.75204 0.97504 0.03800
H 	H 	0.69183 0.75202 0.02492 0.03800
H 	H 	0.72000 0.27926 0.95784 0.04100
H 	H 	0.27996 0.27931 0.04215 0.04100
H 	H 	0.22000 0.77926 0.95784 0.04000
H 	H 	0.77996 0.77931 0.04215 0.04000
H 	H 	0.64186 0.04205 0.05430 0.04100
H 	H 	0.35815 0.04203 0.94569 0.04100
H 	H 	0.14186 0.54205 0.05430 0.04200
H 	H 	0.85815 0.54203 0.94569 0.04200
H 	H 	0.67209 0.19960 0.57344 0.05700
H 	H 	0.32791 0.19959 0.42656 0.05700
H 	H 	0.17209 0.69960 0.57344 0.05400
H 	H 	0.82791 0.69959 0.42656 0.05400
H 	H 	0.65112 0.10071 0.93593 0.03200
H 	H 	0.34887 0.10079 0.06404 0.03200
H 	H 	0.15112 0.60071 0.93593 0.03400
H 	H 	0.84887 0.60079 0.06404 0.03400
H 	H 	0.03529 0.54522 0.05981 0.03900
H 	H 	0.96471 0.54523 0.94019 0.03900
H 	H 	0.53529 0.04522 0.05981 0.06000
H 	H 	0.46471 0.04523 0.94019 0.06000
H 	H 	0.94864 0.51015 0.05962 0.03600
H 	H 	0.05135 0.51014 0.94038 0.03600
H 	H 	0.44864 0.01015 0.05962 0.05900
H 	H 	0.55136 0.01014 0.94038 0.05900
H 	H 	0.60864 0.85365 0.02925 0.03600
H 	H 	0.39134 0.85366 0.97076 0.03600
H 	H 	0.10864 0.35365 0.02925 0.03900
H 	H 	0.89135 0.35366 0.97076 0.03900
H 	H 	0.59574 0.81286 0.91151 0.02900
H 	H 	0.40425 0.81286 0.08850 0.02900
H 	H 	0.09574 0.31286 0.91151 0.03200
H 	H 	0.90425 0.31286 0.08850 0.03200
H 	H 	0.95701 0.18787 0.06916 0.03700
H 	H 	0.04297 0.18786 0.93084 0.03700
H 	H 	0.45702 0.68787 0.06916 0.03500
H 	H 	0.54297 0.68786 0.93084 0.03500
H 	H 	0.91882 0.20765 0.95263 0.04400
H 	H 	0.08116 0.20763 0.04738 0.04400
H 	H 	0.41882 0.70765 0.95263 0.04300
H 	H 	0.58115 0.70764 0.04738 0.04300
H 	H 	0.65755 0.04868 0.56953 0.04800
H 	H 	0.34246 0.04866 0.43046 0.04800
H 	H 	0.15755 0.54868 0.56953 0.03700
H 	H 	0.84246 0.54866 0.43046 0.03700
H 	H 	0.70455 0.90811 0.48952 0.03300
H 	H 	0.29544 0.90810 0.51048 0.03300
H 	H 	0.20455 0.40811 0.48952 0.03400
H 	H 	0.79544 0.40810 0.51048 0.03400
H 	H 	0.74560 0.90299 0.59681 0.04500
H 	H 	0.25440 0.90298 0.40319 0.04500
H 	H 	0.24560 0.40299 0.59681 0.04600
H 	H 	0.75440 0.40298 0.40319 0.04600
H 	H 	0.85969 0.05888 0.43708 0.06300
H 	H 	0.14031 0.05889 0.56291 0.06300
H 	H 	0.35969 0.55888 0.43708 0.05600
H 	H 	0.64031 0.55889 0.56291 0.05600
H 	H 	0.81929 0.19585 0.41475 0.03400
H 	H 	0.18072 0.19586 0.58523 0.03400
H 	H 	0.31929 0.69585 0.41475 0.03300
H 	H 	0.68073 0.69586 0.58523 0.03300
H 	H 	0.80326 0.24224 0.53462 0.03800
H 	H 	0.19677 0.24223 0.46536 0.03800
H 	H 	0.30326 0.74224 0.53462 0.03800
H 	H 	0.69677 0.74223 0.46536 0.03800
O 	O 	0.95721 0.44941 0.66548 -0.46000
O 	O 	0.04279 0.44941 0.33452 -0.46000
O 	O 	0.45721 0.94941 0.66548 -0.46600
O 	O 	0.54279 0.94941 0.33452 -0.46600
O 	O 	0.73626 0.21201 0.82656 -0.49200
O 	O 	0.26374 0.21201 0.17344 -0.49200
O 	O 	0.23626 0.71201 0.82656 -0.49400
O 	O 	0.76374 0.71201 0.17344 -0.49400
O 	O 	0.83252 0.09530 0.83600 -0.45300
O 	O 	0.16748 0.09530 0.16400 -0.45300
O 	O 	0.33252 0.59530 0.83600 -0.45700
O 	O 	0.66748 0.59530 0.16400 -0.45700
O 	O 	0.94638 0.25394 0.82694 -0.49500
O 	O 	0.05362 0.25394 0.17306 -0.49500
O 	O 	0.44638 0.75394 0.82694 -0.49700
O 	O 	0.55362 0.75394 0.17306 -0.49700
O 	O 	0.83456 0.33457 0.74884 -0.71100
O 	O 	0.16544 0.33457 0.25116 -0.71100
O 	O 	0.33456 0.83457 0.74884 -0.71500
O 	O 	0.66544 0.83457 0.25116 -0.71500
O 	O 	0.82073 0.54124 0.66825 -0.48300
O 	O 	0.17927 0.54124 0.33175 -0.48300
O 	O 	0.32073 0.04124 0.66825 -0.47600
O 	O 	0.67927 0.04124 0.33175 -0.47600
O 	O 	0.71424 0.45506 0.66371 -0.45600
O 	O 	0.28576 0.45506 0.33629 -0.45600
O 	O 	0.21424 0.95506 0.66371 -0.47700
O 	O 	0.78576 0.95506 0.33629 -0.47700
O 	O 	0.73678 0.20487 0.67591 -0.50000
O 	O 	0.26322 0.20487 0.32409 -0.50000
O 	O 	0.23678 0.70487 0.67591 -0.50300
O 	O 	0.76322 0.70487 0.32409 -0.50300
O 	O 	0.83307 0.08759 0.67349 -0.43200
O 	O 	0.16693 0.08759 0.32651 -0.43200
O 	O 	0.33307 0.58759 0.67349 -0.44100
O 	O 	0.66693 0.58759 0.32651 -0.44100
O 	O 	0.94689 0.24680 0.67630 -0.48700
O 	O 	0.05311 0.24680 0.32370 -0.48700
O 	O 	0.44689 0.74680 0.67630 -0.49000
O 	O 	0.55311 0.74680 0.32370 -0.49000
O 	O 	0.95665 0.45712 0.82798 -0.45900
O 	O 	0.04335 0.45712 0.17202 -0.45900
O 	O 	0.45665 0.95712 0.82798 -0.46700
O 	O 	0.54335 0.95712 0.17202 -0.46800
O 	O 	0.82022 0.54839 0.81889 -0.50100
O 	O 	0.17978 0.54839 0.18111 -0.50100
O 	O 	0.32022 0.04839 0.81889 -0.49600
O 	O 	0.67978 0.04839 0.18111 -0.49600
O 	O 	0.71368 0.46277 0.82621 -0.46700
O 	O 	0.28632 0.46277 0.17379 -0.46700
O 	O 	0.21368 0.96277 0.82621 -0.48900
O 	O 	0.78632 0.96277 0.17379 -0.48900
S 	S 	0.86626 0.89611 0.57708 0.36600
O 	O 	0.91804 0.98158 0.60255 -0.24800
O 	O 	0.86061 0.80434 0.63438 -0.24800
O 	O 	0.89889 0.83582 0.50243 -0.31100
H 	H 	0.93652 0.78531 0.51897 0.15200
S 	S 	0.13375 0.89610 0.42290 0.36600
O 	O 	0.08196 0.98157 0.39746 -0.24800
O 	O 	0.13940 0.80437 0.36558 -0.24800
O 	O 	0.10113 0.83571 0.49753 -0.31100
H 	H 	0.06326 0.78563 0.48097 0.15200
S 	S 	0.36626 0.39611 0.57708 0.36700
O 	O 	0.41804 0.48158 0.60255 -0.23400
O 	O 	0.36061 0.30434 0.63438 -0.24300
O 	O 	0.39889 0.33582 0.50243 -0.30800
H 	H 	0.43652 0.28531 0.51897 0.15500
S 	S 	0.63375 0.39610 0.42290 0.36700
O 	O 	0.58196 0.48157 0.39746 -0.23400
O 	O 	0.63940 0.30437 0.36558 -0.24300
O 	O 	0.60113 0.33571 0.49753 -0.30700
H 	H 	0.56326 0.28563 0.48097 0.15500
