data_crystal

_cell_length_a 19.16692
_cell_length_b 18.75536
_cell_length_c 12.32926
_cell_angle_alpha 90.06294
_cell_angle_beta  128.92763
_cell_angle_gamma 89.90937

_symmetry_space_group_name_	'P 1'
_symmetry_space_group_name_H-M	'P 1'

loop_
_symmetry_equiv_pos_as_xyz
  x,y,z

loop_
_atom_site_label
_atom_site_type_symbol
_atom_site_fract_x
_atom_site_fract_y
_atom_site_fract_z
_atom_site_charge
C 	C 	0.61106 0.89787 0.65214 0.31400
C 	C 	0.61122 0.10194 0.65246 0.31500
C 	C 	0.11108 0.39788 0.65216 0.31600
C 	C 	0.11122 0.60194 0.65246 0.31600
C 	C 	0.24913 0.76946 0.05082 -0.00500
C 	C 	0.24920 0.23053 0.05061 -0.00700
C 	C 	0.74907 0.26950 0.05075 -0.00600
C 	C 	0.74907 0.73040 0.05040 -0.00600
C 	C 	0.67703 0.25740 0.05417 0.00500
C 	C 	0.67683 0.74251 0.05351 0.00700
C 	C 	0.17708 0.75737 0.05422 0.00500
C 	C 	0.17695 0.24261 0.05368 0.00500
C 	C 	0.60089 0.22171 0.94307 -0.03100
C 	C 	0.60053 0.77804 0.94216 -0.02800
C 	C 	0.10093 0.72169 0.94310 -0.02700
C 	C 	0.10063 0.27812 0.94231 -0.02800
C 	C 	0.59714 0.19567 0.83420 -0.05700
C 	C 	0.59671 0.80402 0.83327 -0.05300
C 	C 	0.09717 0.69567 0.83422 -0.05500
C 	C 	0.09680 0.30407 0.83340 -0.05500
C 	C 	0.31691 0.81674 0.14839 -0.01400
C 	C 	0.31836 0.18477 0.15086 -0.01500
C 	C 	0.81686 0.31679 0.14831 -0.01300
C 	C 	0.81825 0.68466 0.15068 -0.01400
C 	C 	0.25144 0.83077 0.26178 -0.00500
C 	C 	0.25156 0.16970 0.26192 -0.00500
C 	C 	0.75140 0.33081 0.26172 -0.00400
C 	C 	0.75151 0.66966 0.26184 -0.00400
C 	C 	0.67553 0.15898 0.74133 -0.10400
C 	C 	0.67486 0.84022 0.74001 -0.09700
C 	C 	0.17554 0.65897 0.74134 -0.10200
C 	C 	0.17494 0.34027 0.74012 -0.10200
C 	C 	0.68067 0.00086 0.28166 -0.17200
C 	C 	0.18066 0.50095 0.28165 -0.08200
C 	C 	0.34456 0.00071 0.62251 -0.01500
C 	C 	0.84456 0.50071 0.62250 0.04000
C 	C 	0.30708 0.99962 0.68790 -0.00800
C 	C 	0.80708 0.49959 0.68789 -0.07100
C 	C 	0.38597 0.09953 0.34441 0.30900
C 	C 	0.38560 0.90085 0.34381 0.30800
C 	C 	0.88595 0.59952 0.34439 0.31000
C 	C 	0.88559 0.40087 0.34380 0.31000
C 	C 	0.36100 0.99751 0.83360 -0.01700
C 	C 	0.86099 0.49744 0.83359 0.01700
C 	C 	0.45732 0.99855 0.91750 0.02200
C 	C 	0.95731 0.49852 0.91750 -0.03200
C 	C 	0.49150 0.99955 0.84150 0.05100
C 	C 	0.99149 0.49955 0.84149 0.07200
C 	C 	0.52211 0.99869 0.06935 -0.07700
C 	C 	0.02211 0.49867 0.06935 -0.01100
C 	C 	0.61557 0.99986 0.13601 0.17000
C 	C 	0.11556 0.49989 0.13600 0.03400
C 	C 	0.64480 0.00013 0.05809 -0.18900
C 	C 	0.14480 0.50018 0.05808 -0.04100
C 	C 	0.58435 0.99991 0.91484 0.06600
C 	C 	0.08435 0.49993 0.91484 -0.05800
C 	C 	0.50085 0.99832 0.16071 0.07300
C 	C 	0.00085 0.49827 0.16071 0.02300
C 	C 	0.65441 0.00110 0.36348 0.06900
C 	C 	0.15441 0.50117 0.36347 0.04300
C 	C 	0.68035 0.28651 0.16358 -0.02400
C 	C 	0.68029 0.71381 0.16327 -0.02300
C 	C 	0.18040 0.78646 0.16364 -0.02100
C 	C 	0.18038 0.21388 0.16339 -0.02400
C 	C 	0.31769 0.84771 0.25160 -0.07500
C 	C 	0.31846 0.15322 0.25293 -0.08200
C 	C 	0.81764 0.34775 0.25154 -0.08000
C 	C 	0.81840 0.65317 0.25284 -0.08000
C 	C 	0.74706 0.16975 0.73924 0.01300
C 	C 	0.74583 0.82861 0.73676 0.01400
C 	C 	0.24709 0.66973 0.73926 0.01400
C 	C 	0.24594 0.32870 0.73694 0.01400
C 	C 	0.31872 0.71243 0.83825 -0.04900
C 	C 	0.31716 0.28530 0.83492 -0.04900
C 	C 	0.81867 0.21248 0.83819 -0.05000
C 	C 	0.81700 0.78513 0.83463 -0.04600
C 	C 	0.32112 0.74416 0.94221 -0.02400
C 	C 	0.31991 0.25385 0.93931 -0.02400
C 	C 	0.82106 0.24422 0.94213 -0.02600
C 	C 	0.81973 0.75365 0.93899 -0.02500
C 	C 	0.74873 0.23724 0.94559 -0.01700
C 	C 	0.74802 0.76160 0.94385 -0.01400
C 	C 	0.24877 0.73721 0.94564 -0.01600
C 	C 	0.24816 0.26174 0.94409 -0.01500
C 	C 	0.67308 0.19667 0.83952 0.05700
C 	C 	0.67246 0.80252 0.83816 0.05800
C 	C 	0.17311 0.69666 0.83955 0.05800
C 	C 	0.17256 0.30261 0.83831 0.05800
Cu	Cu	0.52634 -0.00000 0.42101 0.90300
Cu	Cu	0.02634 0.50000 0.42101 0.91900
Cu	Cu	0.47364 0.00000 0.57899 0.90500
Cu	Cu	0.97364 0.50000 0.57899 0.91400
H 	H 	0.25355 0.85365 0.34464 0.04900
H 	H 	0.25335 0.14663 0.34428 0.04300
H 	H 	0.75353 0.35369 0.34460 0.04500
H 	H 	0.75336 0.64663 0.34428 0.04500
H 	H 	0.71587 0.00075 0.10865 0.07000
H 	H 	0.21587 0.50082 0.10865 0.04100
H 	H 	0.75164 0.00172 0.33194 0.06200
H 	H 	0.25163 0.50187 0.33193 0.04800
H 	H 	0.43372 0.99647 0.12454 0.02900
H 	H 	0.93372 0.49635 0.12454 0.02900
H 	H 	0.30138 0.00148 0.50985 0.02400
H 	H 	0.80138 0.50149 0.50985 0.02100
H 	H 	0.23450 0.99936 0.62337 0.04500
H 	H 	0.73449 0.49932 0.62335 0.04900
H 	H 	0.61366 0.00025 0.86473 0.01200
H 	H 	0.11365 0.50026 0.86473 0.06600
H 	H 	0.54192 0.21668 0.93619 0.03800
H 	H 	0.54159 0.78325 0.93537 0.04100
H 	H 	0.04195 0.71666 0.93622 0.04200
H 	H 	0.04168 0.28331 0.93552 0.04200
H 	H 	0.36768 0.83360 0.14195 0.04800
H 	H 	0.37045 0.16891 0.14687 0.04400
H 	H 	0.86761 0.33365 0.14187 0.04600
H 	H 	0.87032 0.66879 0.14666 0.04400
H 	H 	0.74977 0.14261 0.66434 0.03600
H 	H 	0.74845 0.85561 0.66176 0.04300
H 	H 	0.24979 0.64260 0.66435 0.03800
H 	H 	0.24854 0.35569 0.66190 0.03800
H 	H 	0.38099 0.77389 0.01758 0.03600
H 	H 	0.37983 0.22398 0.01432 0.03300
H 	H 	0.88090 0.27399 0.01744 0.03500
H 	H 	0.87961 0.72372 0.01391 0.03400
H 	H 	0.37450 0.71910 0.83740 0.04100
H 	H 	0.37254 0.27805 0.83320 0.04000
H 	H 	0.87444 0.21916 0.83732 0.03800
H 	H 	0.87235 0.77784 0.83286 0.04000
H 	H 	0.53257 0.17648 0.74481 0.06200
H 	H 	0.53219 0.82350 0.74407 0.06400
H 	H 	0.03259 0.67650 0.74480 0.06600
H 	H 	0.03227 0.32350 0.74416 0.06500
H 	H 	0.70404 0.00208 0.47593 0.00400
H 	H 	0.20404 0.50221 0.47593 0.02000
N 	N 	0.56626 -0.00000 0.30222 -0.22200
N 	N 	0.06626 0.50000 0.30222 -0.18900
N 	N 	0.43441 0.00000 0.69768 -0.20000
N 	N 	0.93441 0.50000 0.69768 -0.19700
O 	O 	0.60861 0.92452 0.55174 -0.36500
O 	O 	0.60861 0.07548 0.55174 -0.38600
O 	O 	0.10861 0.42452 0.55174 -0.38000
O 	O 	0.10861 0.57548 0.55174 -0.37900
O 	O 	0.56411 0.92451 0.68515 -0.36500
O 	O 	0.56411 0.07549 0.68515 -0.38700
O 	O 	0.06411 0.42451 0.68515 -0.37900
O 	O 	0.06411 0.57549 0.68515 -0.37900
O 	O 	0.43588 0.07547 0.31485 -0.38900
O 	O 	0.43588 0.92453 0.31485 -0.36800
O 	O 	0.93588 0.57547 0.31485 -0.38400
O 	O 	0.93588 0.42453 0.31485 -0.38400
O 	O 	0.39138 0.07546 0.44826 -0.38600
O 	O 	0.39138 0.92454 0.44826 -0.36400
O 	O 	0.89138 0.57546 0.44826 -0.38200
O 	O 	0.89138 0.42454 0.44826 -0.38200
C 	C 	0.30795 0.99150 0.88228 0.05700
C 	C 	0.26557 0.92649 0.86438 -0.05500
C 	C 	0.19818 0.92322 0.87719 -0.02100
C 	C 	0.17364 0.98431 0.91045 0.00400
C 	C 	0.21429 0.04933 0.92621 -0.04800
C 	C 	0.28074 0.05329 0.91112 -0.08200
H 	H 	0.28106 0.87950 0.83214 0.04900
H 	H 	0.16272 0.87393 0.85674 0.04200
H 	H 	0.12109 0.98171 0.91956 0.04000
H 	H 	0.19127 0.09685 0.94447 0.04300
H 	H 	0.30865 0.10444 0.91658 0.04800
C 	C 	0.80793 0.49134 0.88224 0.01000
C 	C 	0.76545 0.42634 0.86401 -0.04600
C 	C 	0.69804 0.42301 0.87675 -0.01900
C 	C 	0.67358 0.48403 0.91031 -0.03400
C 	C 	0.71431 0.54906 0.92639 -0.01900
C 	C 	0.78078 0.55307 0.91132 -0.04400
H 	H 	0.78087 0.37940 0.83154 0.04500
H 	H 	0.66250 0.37373 0.85603 0.03900
H 	H 	0.62102 0.48139 0.91940 0.03900
H 	H 	0.69135 0.59652 0.94485 0.04000
H 	H 	0.80874 0.60423 0.91699 0.04400
C 	C 	0.61406 0.27128 0.18493 0.02300
C 	C 	0.61077 0.20312 0.22828 -0.05600
C 	C 	0.56669 0.19290 0.28404 -0.01800
C 	C 	0.52538 0.25027 0.29614 -0.04000
C 	C 	0.52449 0.31745 0.24668 -0.01800
C 	C 	0.56883 0.32808 0.19154 -0.05600
H 	H 	0.64682 0.15912 0.22682 0.04500
H 	H 	0.56689 0.14108 0.32197 0.04400
H 	H 	0.49393 0.24266 0.34361 0.04500
H 	H 	0.49163 0.36169 0.25467 0.03300
H 	H 	0.57182 0.38126 0.16047 0.04300
C 	C 	0.61389 0.72918 0.18443 0.02400
C 	C 	0.61053 0.79738 0.22781 -0.05400
C 	C 	0.56636 0.80777 0.28345 -0.01600
C 	C 	0.52499 0.75054 0.29536 -0.04000
C 	C 	0.52437 0.68327 0.24623 -0.01800
C 	C 	0.56878 0.67247 0.19117 -0.05700
H 	H 	0.64656 0.84130 0.22640 0.05300
H 	H 	0.56652 0.85961 0.32138 0.05000
H 	H 	0.49317 0.75836 0.34226 0.04500
H 	H 	0.49149 0.63911 0.25413 0.03300
H 	H 	0.57187 0.61924 0.16019 0.04300
C 	C 	0.11407 0.77128 0.18489 0.02500
C 	C 	0.11094 0.70322 0.22873 -0.05300
C 	C 	0.06663 0.69309 0.28416 -0.01800
C 	C 	0.02498 0.75049 0.29546 -0.03200
C 	C 	0.02397 0.81756 0.24556 -0.00900
C 	C 	0.06853 0.82809 0.19075 -0.05700
H 	H 	0.14721 0.65923 0.22780 0.04800
H 	H 	0.06690 0.64134 0.32238 0.04800
H 	H 	0.99333 0.74297 0.34265 0.04000
H 	H 	0.99081 0.86181 0.25292 0.03100
H 	H 	0.07139 0.88120 0.15928 0.05000
C 	C 	0.11396 0.22924 0.18450 0.02400
C 	C 	0.11084 0.29736 0.22843 -0.05300
C 	C 	0.06657 0.30767 0.28391 -0.01800
C 	C 	0.02487 0.25045 0.29516 -0.03300
C 	C 	0.02403 0.18328 0.24550 -0.01200
C 	C 	0.06855 0.17256 0.19058 -0.05900
H 	H 	0.14712 0.34125 0.22755 0.04900
H 	H 	0.06689 0.35945 0.32223 0.04800
H 	H 	0.99297 0.25821 0.34194 0.03800
H 	H 	0.99089 0.13914 0.25285 0.02200
H 	H 	0.07146 0.11939 0.15917 0.03900
