data_crystal

_cell_length_a 20.87385
_cell_length_b 7.12690
_cell_length_c 14.03361
_cell_angle_alpha 89.96433
_cell_angle_beta  98.01926
_cell_angle_gamma 90.08034

_symmetry_space_group_name_	'P 1'
_symmetry_space_group_name_H-M	'P 1'

loop_
_symmetry_equiv_pos_as_xyz
  x,y,z

loop_
_atom_site_label
_atom_site_type_symbol
_atom_site_fract_x
_atom_site_fract_y
_atom_site_fract_z
_atom_site_charge
O 	O 	0.44713 0.50714 0.59735 -0.46300
O 	O 	0.55287 0.00714 0.40265 -0.45700
O 	O 	0.57891 0.18128 0.58699 -0.50300
O 	O 	0.42109 0.68128 0.41301 -0.50300
C 	C 	0.60453 0.34458 0.60728 0.41000
C 	C 	0.39551 0.84443 0.39260 0.40500
O 	O 	0.44923 0.17786 0.60864 -0.46600
O 	O 	0.55077 0.67786 0.39136 -0.46800
O 	O 	0.42226 0.00077 0.42445 -0.49400
O 	O 	0.57774 0.50077 0.57555 -0.49900
C 	C 	0.43270 0.34601 0.63458 0.35100
C 	C 	0.56726 0.84647 0.36546 0.34700
O 	O 	0.49131 0.33698 0.43955 -0.61200
O 	O 	0.50869 0.83698 0.56045 -0.61500
V 	V 	0.50161 0.06476 0.51121 1.80500
V 	V 	0.49839 0.56476 0.48879 1.80400
C 	C 	0.62025 0.90505 0.12323 -0.02600
C 	C 	0.38010 0.33386 0.87888 -0.02600
H 	H 	0.52905 0.91192 0.17701 0.03800
H 	H 	0.47141 0.32211 0.82558 0.03900
H 	H 	0.59701 0.92929 0.05042 0.04300
H 	H 	0.40347 0.32490 0.95259 0.04400
C 	C 	0.60807 0.85713 0.28944 -0.06800
C 	C 	0.39198 0.35182 0.71093 -0.06800
C 	C 	0.92325 0.85185 0.30828 0.17300
C 	C 	0.07727 0.34120 0.69208 0.17600
C 	C 	0.88560 0.87252 0.38267 -0.18700
C 	C 	0.11472 0.30403 0.61969 -0.19000
C 	C 	0.81802 0.89330 0.36354 0.21100
C 	C 	0.18246 0.29024 0.63956 0.21300
C 	C 	0.78574 0.87366 0.26741 -0.12000
C 	C 	0.21449 0.33120 0.73403 -0.12200
C 	C 	0.82420 0.86767 0.19149 0.14500
C 	C 	0.17590 0.35297 0.80923 0.14800
C 	C 	0.71677 0.86855 0.24327 0.07000
C 	C 	0.28337 0.34330 0.75767 0.07100
C 	C 	0.68806 0.88665 0.14526 -0.04100
C 	C 	0.31213 0.34364 0.85609 -0.04100
C 	C 	0.72697 0.88483 0.07087 0.09800
C 	C 	0.27307 0.35461 0.93008 0.09900
C 	C 	0.79418 0.87102 0.09513 -0.12900
C 	C 	0.20589 0.36615 0.90536 -0.13000
C 	C 	0.67491 0.83852 0.31280 -0.02400
C 	C 	0.32494 0.36239 0.68685 -0.02300
C 	C 	0.58089 0.89479 0.19519 0.00400
C 	C 	0.41943 0.33333 0.80667 0.00400
C 	C 	0.89258 0.85996 0.21260 -0.18800
C 	C 	0.10752 0.35848 0.78765 -0.19300
H 	H 	0.69246 0.79454 0.38520 0.06900
H 	H 	0.30691 0.39091 0.61253 0.06900
H 	H 	0.90897 0.88212 0.45631 0.07600
H 	H 	0.09046 0.28075 0.54722 0.08300
H 	H 	0.82350 0.86200 0.03778 0.07700
H 	H 	0.17667 0.38522 0.96230 0.07800
C 	C 	0.16649 0.85696 0.16853 -0.10200
C 	C 	0.83377 0.35756 0.83080 -0.10400
C 	C 	0.21889 0.85449 0.21966 0.03000
C 	C 	0.78143 0.35581 0.77950 0.03200
C 	C 	0.28068 0.85308 0.27957 0.04500
C 	C 	0.71959 0.35422 0.71973 0.04700
C 	C 	0.33308 0.85089 0.33070 -0.11300
C 	C 	0.66709 0.35151 0.66886 -0.11200
O 	O 	0.92230 0.20224 0.92435 -0.49300
O 	O 	0.07770 0.70224 0.07565 -0.48800
O 	O 	0.05078 0.53513 0.89135 -0.48400
O 	O 	0.94922 0.03513 0.10865 -0.48000
C 	C 	0.06718 0.36812 0.86510 0.39900
C 	C 	0.93281 0.86783 0.13488 0.39400
O 	O 	0.92110 0.53156 0.91299 -0.49700
O 	O 	0.07890 0.03156 0.08701 -0.49000
O 	O 	0.94712 0.70847 0.09737 -0.47400
O 	O 	0.05288 0.20847 0.90263 -0.47600
C 	C 	0.89601 0.36355 0.89311 0.36800
C 	C 	0.10409 0.86356 0.10663 0.36400
O 	O 	0.00871 0.37580 0.06040 -0.61400
O 	O 	0.99129 0.87580 0.93960 -0.62700
V 	V 	0.99838 0.64808 0.98879 1.80000
V 	V 	0.00162 0.14808 0.01121 1.80400
N 	N 	0.69729 0.88580 0.97230 -0.14600
H 	H 	0.66310 0.78228 0.95479 0.08500
C 	C 	0.73531 0.92907 0.89637 -0.09900
H 	H 	0.70244 0.95591 0.82849 0.06100
H 	H 	0.76706 0.80878 0.88450 0.06000
H 	H 	0.76469 0.05726 0.91467 0.06800
N 	N 	0.30245 0.36549 0.02850 -0.14600
H 	H 	0.33303 0.47840 0.04436 0.08500
C 	C 	0.26575 0.31292 0.10467 -0.09300
H 	H 	0.29938 0.29153 0.17236 0.06300
H 	H 	0.23933 0.17938 0.08661 0.06400
H 	H 	0.23131 0.42621 0.11686 0.06000
N 	N 	0.99218 0.83179 0.32735 -0.16000
H 	H 	0.01867 0.92377 0.29158 0.09400
C 	C 	0.02287 0.77428 0.42171 -0.07400
H 	H 	0.07357 0.73208 0.41739 0.05300
H 	H 	0.99726 0.65171 0.44771 0.05000
H 	H 	0.02373 0.89270 0.47309 0.04300
N 	N 	0.00884 0.35663 0.66770 -0.15500
H 	H 	0.98679 0.44663 0.71054 0.08700
C 	C 	0.97514 0.17956 0.65185 -0.09200
H 	H 	0.92278 0.20576 0.62927 0.05400
H 	H 	0.98100 0.09536 0.71919 0.06500
H 	H 	0.99390 0.09922 0.59401 0.04900
O 	O 	0.78447 0.94952 0.43681 -0.30100
H 	H 	0.81433 0.95929 0.49811 0.15000
O 	O 	0.21657 0.22100 0.56966 -0.30100
H 	H 	0.18671 0.19729 0.50944 0.15300
