data_crystal

_cell_length_a 6.99578
_cell_length_b 17.36443
_cell_length_c 18.69942
_cell_angle_alpha 105.97344
_cell_angle_beta  89.50765
_cell_angle_gamma 90.21777

_symmetry_space_group_name_	'P 1'
_symmetry_space_group_name_H-M	'P 1'

loop_
_symmetry_equiv_pos_as_xyz
  x,y,z

loop_
_atom_site_label
_atom_site_type_symbol
_atom_site_fract_x
_atom_site_fract_y
_atom_site_fract_z
_atom_site_charge
O 	O 	0.49436 0.41568 0.41376 -0.43600
O 	O 	0.81881 0.43291 0.55723 -0.52600
O 	O 	0.99429 0.58432 0.58624 -0.46400
C 	C 	0.64997 0.41685 0.58124 0.43100
O 	O 	0.82374 0.40644 0.41252 -0.44000
O 	O 	0.99925 0.55766 0.44050 -0.52700
C 	C 	0.65579 0.38532 0.38356 0.39100
O 	O 	0.48940 0.44234 0.55950 -0.51600
O 	O 	0.66250 0.54965 0.50935 -0.61400
V 	V 	0.93534 0.49079 0.49827 1.83400
O 	O 	0.32927 0.56709 0.44277 -0.53800
C 	C 	0.16145 0.58479 0.42026 0.41000
O 	O 	0.32434 0.59356 0.58748 -0.46300
C 	C 	0.15617 0.61158 0.61824 0.37300
V 	V 	0.43597 0.50921 0.50173 1.83600
O 	O 	0.15894 0.45035 0.49065 -0.60900
H 	H 	0.17910 0.85125 0.54028 0.10700
C 	C 	0.17855 0.59001 0.77173 0.04900
C 	C 	0.16828 0.57993 0.84401 0.08600
C 	C 	0.12793 0.64602 0.90471 -0.01700
C 	C 	0.11613 0.72219 0.89489 0.29300
C 	C 	0.12981 0.73576 0.82348 -0.05700
C 	C 	0.15298 0.66786 0.75992 0.04500
C 	C 	0.12445 0.81543 0.81520 -0.03100
C 	C 	0.14126 0.82735 0.74242 0.02500
C 	C 	0.14375 0.75878 0.67904 0.03500
C 	C 	0.14877 0.67993 0.68721 -0.08700
C 	C 	0.15693 0.90548 0.73011 0.00700
C 	C 	0.17956 0.91175 0.65647 0.31500
C 	C 	0.16710 0.84503 0.59622 -0.14300
C 	C 	0.14779 0.76995 0.60688 0.01000
H 	H 	0.14318 0.72050 0.55701 0.05000
C 	C 	0.11216 0.86618 0.13448 -0.08400
C 	C 	0.12055 0.82432 0.17874 0.06200
C 	C 	0.13080 0.77485 0.23130 -0.01400
C 	C 	0.13926 0.73289 0.27545 -0.02100
C 	C 	0.14915 0.68242 0.32720 0.05600
C 	C 	0.15574 0.63865 0.36984 -0.11500
C 	C 	0.64131 0.36482 0.63320 -0.10300
C 	C 	0.63738 0.32181 0.67650 0.05100
C 	C 	0.63401 0.27129 0.72813 -0.02500
C 	C 	0.63196 0.22889 0.77195 -0.03100
C 	C 	0.63058 0.17868 0.82392 0.04700
C 	C 	0.62679 0.13577 0.86733 -0.12200
H 	H 	0.57281 0.12821 0.44550 0.11300
C 	C 	0.71023 0.40938 0.23280 -0.01600
C 	C 	0.75144 0.41654 0.16111 0.33600
C 	C 	0.69840 0.35693 0.09933 -0.22900
C 	C 	0.61703 0.28614 0.10700 0.16900
C 	C 	0.63082 0.26772 0.17651 -0.01900
C 	C 	0.66293 0.33226 0.24220 0.03800
C 	C 	0.61363 0.18766 0.18174 -0.09900
C 	C 	0.60601 0.17315 0.25261 0.10500
C 	C 	0.61841 0.23782 0.31887 -0.09200
C 	C 	0.64662 0.31772 0.31396 -0.02800
C 	C 	0.58326 0.09401 0.25856 -0.11000
C 	C 	0.57141 0.07846 0.32745 0.06900
C 	C 	0.58210 0.14086 0.39202 -0.18500
C 	C 	0.60555 0.21949 0.38857 0.35900
H 	H 	0.71540 0.36662 0.04482 0.10800
H 	H 	0.57305 0.04301 0.21006 0.06400
H 	H 	0.55349 0.01757 0.33073 0.01400
O 	O 	0.77569 0.05775 0.94057 -0.54400
O 	O 	0.44120 0.09357 0.08749 -0.47900
O 	O 	0.26584 0.94232 0.05948 -0.50100
C 	C 	0.60910 0.11808 0.11366 0.38000
O 	O 	0.44627 0.06711 0.94279 -0.52700
O 	O 	0.27095 0.91566 0.91375 -0.42300
C 	C 	0.61568 0.08355 0.91912 0.41300
O 	O 	0.77058 0.08440 0.08630 -0.47500
O 	O 	0.60264 0.95040 0.99069 -0.59200
V 	V 	0.32974 0.00920 0.00173 1.82200
O 	O 	0.94090 0.90636 0.91245 -0.43700
C 	C 	0.11047 0.88553 0.88316 0.39500
O 	O 	0.93583 0.93282 0.05716 -0.50900
C 	C 	0.10382 0.91739 0.08169 0.43400
V 	V 	0.82913 0.99068 0.99818 1.84500
O 	O 	0.10610 0.04959 0.00931 -0.64300
O 	O 	0.72979 0.47622 0.29311 -0.15400
C 	C 	0.60809 0.53914 0.28615 0.04100
H 	H 	0.49900 0.54890 0.33019 0.04500
H 	H 	0.52745 0.52700 0.23291 0.04800
C 	C 	0.72545 0.61554 0.29704 -0.06400
H 	H 	0.78102 0.63286 0.35461 0.07000
H 	H 	0.84634 0.60348 0.25686 0.09000
C 	C 	0.61101 0.68550 0.28555 -0.14100
H 	H 	0.52152 0.66627 0.23502 0.06700
H 	H 	0.71004 0.73317 0.27885 0.06600
H 	H 	0.52066 0.71129 0.33524 0.07000
F 	F 	0.83009 0.48434 0.15106 -0.47100
O 	O 	0.54053 0.23214 0.04506 -0.22000
C 	C 	0.38417 0.26614 0.01649 0.04200
H 	H 	0.38094 0.23790 0.95573 0.03800
H 	H 	0.39714 0.33145 0.02211 0.02100
C 	C 	0.19520 0.24982 0.05200 -0.08300
H 	H 	0.20992 0.19791 0.07508 0.07900
H 	H 	0.15673 0.30251 0.09894 0.06400
C 	C 	0.03383 0.23216 0.99545 -0.11300
H 	H 	0.00301 0.28558 0.97576 0.05900
H 	H 	0.90460 0.21453 0.02135 0.07400
H 	H 	0.07162 0.18098 0.94737 0.07100
F 	F 	0.61684 0.27628 0.45450 -0.45500
O 	O 	0.24573 0.52573 0.71532 -0.18200
C 	C 	0.09929 0.46860 0.68866 0.04700
H 	H 	0.09806 0.45934 0.62811 0.03200
H 	H 	0.95288 0.48926 0.70954 0.03100
C 	C 	0.14256 0.38749 0.70381 -0.04600
H 	H 	0.28243 0.38920 0.73100 0.05700
H 	H 	0.03268 0.37495 0.74243 0.04600
C 	C 	0.14613 0.31773 0.63285 -0.16600
H 	H 	0.00558 0.31038 0.60507 0.09500
H 	H 	0.18139 0.26132 0.64675 0.07400
H 	H 	0.25569 0.32810 0.59330 0.10500
O 	O 	0.16963 0.50260 0.85152 -0.19900
C 	C 	0.32221 0.48886 0.89571 0.04000
H 	H 	0.29774 0.42844 0.90363 0.02800
H 	H 	0.32258 0.53057 0.95241 0.04000
C 	C 	0.51839 0.48959 0.85844 -0.06800
H 	H 	0.51141 0.46054 0.79797 0.05900
H 	H 	0.56415 0.55254 0.86586 0.05300
C 	C 	0.66622 0.44556 0.89204 -0.14700
H 	H 	0.66994 0.47068 0.95334 0.06300
H 	H 	0.80957 0.45117 0.86812 0.06600
H 	H 	0.62923 0.38108 0.87958 0.05900
O 	O 	0.10666 0.63825 0.97603 -0.14100
C 	C 	0.91869 0.61314 0.98680 0.03800
H 	H 	0.92838 0.55375 0.99800 0.04200
H 	H 	0.82314 0.60716 0.93812 0.03400
C 	C 	0.82804 0.67242 0.05445 -0.06300
H 	H 	0.91137 0.67312 0.10492 0.06500
H 	H 	0.83111 0.73348 0.04642 0.08800
C 	C 	0.62108 0.65007 0.06599 -0.14700
H 	H 	0.53493 0.64896 0.01609 0.07500
H 	H 	0.55848 0.69540 0.11430 0.07100
H 	H 	0.61421 0.59040 0.07696 0.07800
F 	F 	0.08506 0.78205 0.95747 -0.43500
O 	O 	0.17804 0.97301 0.79018 -0.14200
C 	C 	0.06723 0.03916 0.78409 0.02700
H 	H 	0.97263 0.05648 0.83322 0.04100
H 	H 	0.97063 0.02673 0.73513 0.05300
C 	C 	0.20020 0.10988 0.78665 -0.05500
H 	H 	0.26294 0.12912 0.84276 0.05600
H 	H 	0.31783 0.09119 0.74545 0.08700
C 	C 	0.09837 0.18151 0.77253 -0.14200
H 	H 	0.01490 0.16324 0.72031 0.07600
H 	H 	0.20553 0.22705 0.76748 0.05900
H 	H 	0.00402 0.20962 0.82035 0.06000
F 	F 	0.21901 0.98252 0.64206 -0.44200
