data_crystal

_cell_length_a 11.23250
_cell_length_b 10.97841
_cell_length_c 18.82319
_cell_angle_alpha 90.69384
_cell_angle_beta  89.82349
_cell_angle_gamma 118.85943

_symmetry_space_group_name_	'P 1'
_symmetry_space_group_name_H-M	'P 1'

loop_
_symmetry_equiv_pos_as_xyz
  x,y,z

loop_
_atom_site_label
_atom_site_type_symbol
_atom_site_fract_x
_atom_site_fract_y
_atom_site_fract_z
_atom_site_charge
O 	O 	0.91096 0.57241 0.17101 -0.47100
O 	O 	0.42759 0.33855 0.17101 -0.45800
O 	O 	0.66145 0.08904 0.17101 -0.47200
O 	O 	0.57241 0.91096 0.82899 -0.48100
O 	O 	0.33855 0.42759 0.82899 -0.47500
O 	O 	0.08904 0.66145 0.82899 -0.48000
O 	O 	0.63975 0.52853 0.17560 -0.50400
O 	O 	0.47147 0.11122 0.17560 -0.51700
O 	O 	0.88878 0.36025 0.17560 -0.51100
O 	O 	0.52853 0.63975 0.82440 -0.51200
O 	O 	0.11122 0.47147 0.82440 -0.52300
O 	O 	0.36025 0.88878 0.82440 -0.51100
C 	C 	0.52087 0.45871 0.14752 0.38300
C 	C 	0.54154 0.05998 0.14802 0.39700
C 	C 	0.93927 0.47916 0.14756 0.38500
C 	C 	0.45317 0.52065 0.85390 0.39000
C 	C 	0.06660 0.54608 0.85414 0.42000
C 	C 	0.47823 0.93301 0.85418 0.38900
O 	O 	0.90933 0.57240 0.33154 -0.45700
O 	O 	0.42760 0.33693 0.33154 -0.47000
O 	O 	0.66307 0.09067 0.33154 -0.43200
O 	O 	0.57240 0.90933 0.66846 -0.46000
O 	O 	0.33693 0.42760 0.66846 -0.45700
O 	O 	0.09067 0.66307 0.66846 -0.46000
O 	O 	0.63824 0.52852 0.32441 -0.49100
O 	O 	0.47148 0.10972 0.32441 -0.46000
O 	O 	0.89028 0.36176 0.32441 -0.49000
O 	O 	0.52852 0.63824 0.67559 -0.50200
O 	O 	0.10972 0.47148 0.67559 -0.49900
O 	O 	0.36176 0.89028 0.67559 -0.49400
C 	C 	0.51986 0.44893 0.35740 0.39100
C 	C 	0.57702 0.12013 0.36148 0.32600
C 	C 	0.89026 0.46435 0.36190 0.38300
C 	C 	0.45585 0.51259 0.64792 0.40800
C 	C 	0.06002 0.54270 0.64712 0.43000
C 	C 	0.47944 0.93833 0.64694 0.41700
Cr	Cr	0.76855 0.54132 0.25066 1.52500
Cr	Cr	0.45868 0.22723 0.25066 1.53100
Cr	Cr	0.77277 0.23145 0.25066 1.52400
Cr	Cr	0.54132 0.76855 0.74934 1.53100
Cr	Cr	0.22723 0.45868 0.74934 1.53200
Cr	Cr	0.23145 0.77277 0.74934 1.52900
O 	O 	0.66667 0.33333 0.25063 -0.74000
O 	O 	0.33333 0.66667 0.74937 -0.72600
H 	H 	0.64627 0.92572 0.07321 0.04100
H 	H 	0.07717 0.71750 0.07728 0.04900
H 	H 	0.28785 0.36016 0.07459 0.04400
H 	H 	0.11216 0.74149 0.95129 0.04300
H 	H 	0.63307 0.89227 0.94727 0.04300
H 	H 	0.26401 0.37203 0.94908 0.04400
C 	C 	0.49203 0.97275 0.92941 -0.10500
C 	C 	0.02613 0.52000 0.92880 -0.10600
C 	C 	0.47986 0.50467 0.92837 -0.11600
C 	C 	0.00296 0.49564 0.07720 -0.07100
C 	C 	0.49457 0.99277 0.07803 -0.10200
C 	C 	0.50346 0.50497 0.07691 -0.10700
C 	C 	0.40536 0.01516 0.96306 0.03300
C 	C 	0.97962 0.38795 0.95952 0.03100
C 	C 	0.60837 0.58630 0.96019 0.04500
C 	C 	0.98159 0.37836 0.03451 0.01700
C 	C 	0.39553 0.00974 0.03807 0.04400
C 	C 	0.61735 0.59852 0.03528 0.04300
C 	C 	0.57547 0.94660 0.04377 0.00800
C 	C 	0.05348 0.62541 0.04568 -0.00100
C 	C 	0.37739 0.42723 0.04412 0.00600
C 	C 	0.06764 0.63777 0.97294 0.00900
C 	C 	0.57204 0.93387 0.97093 0.00100
C 	C 	0.36529 0.42956 0.97143 0.00300
C 	C 	0.32720 0.06127 0.92428 -0.04900
C 	C 	0.93309 0.26555 0.91759 -0.05600
C 	C 	0.72781 0.65752 0.91927 -0.05500
C 	C 	0.96120 0.25163 0.06368 -0.04200
C 	C 	0.28850 0.02373 0.07008 -0.05900
C 	C 	0.74029 0.70298 0.06538 -0.04800
C 	C 	0.22977 0.08498 0.95804 -0.03000
C 	C 	0.90494 0.13998 0.94834 -0.02800
C 	C 	0.84989 0.75190 0.95105 -0.02800
C 	C 	0.92135 0.13396 0.02102 -0.03500
C 	C 	0.20913 0.06399 0.03059 -0.02000
C 	C 	0.85533 0.77580 0.02379 -0.02700
H 	H 	0.34177 0.08158 0.86801 0.04200
H 	H 	0.91663 0.26505 0.86101 0.03700
H 	H 	0.72877 0.63988 0.86270 0.04400
H 	H 	0.98069 0.24216 0.11887 0.03300
H 	H 	0.26153 0.99985 0.12523 0.05300
H 	H 	0.74887 0.73459 0.12044 0.03900
H 	H 	0.16899 0.11801 0.92766 0.03300
H 	H 	0.87216 0.04757 0.91555 0.02200
H 	H 	0.93997 0.80810 0.91900 0.02300
H 	H 	0.90180 0.03750 0.04497 0.02500
H 	H 	0.13234 0.08027 0.05687 0.03200
H 	H 	0.94930 0.85056 0.04852 0.02400
C 	C 	0.50016 0.01059 0.57898 -0.14500
C 	C 	0.00269 0.51104 0.57562 -0.08900
C 	C 	0.49174 0.45982 0.58308 -0.11200
C 	C 	0.95360 0.50592 0.43112 -0.13200
C 	C 	0.55395 0.07259 0.43477 -0.09100
C 	C 	0.49185 0.45631 0.43499 -0.08500
C 	C 	0.63328 0.09718 0.55707 0.08000
C 	C 	0.94569 0.59278 0.54936 0.04400
C 	C 	0.39761 0.33510 0.54904 0.08100
C 	C 	0.93640 0.60366 0.47555 0.08100
C 	C 	0.66193 0.10625 0.48390 0.04700
C 	C 	0.38915 0.33497 0.47329 0.05900
C 	C 	0.42140 0.98519 0.45589 0.09100
C 	C 	0.02943 0.44646 0.45482 0.12600
C 	C 	0.58690 0.56601 0.47754 0.08100
C 	C 	0.05631 0.45150 0.52658 0.08200
C 	C 	0.39574 0.95257 0.52743 0.10700
C 	C 	0.60958 0.52653 0.54554 0.08000
C 	C 	0.74050 0.14663 0.60661 -0.05000
C 	C 	0.90292 0.66953 0.59508 -0.02400
C 	C 	0.31432 0.21517 0.58799 -0.04000
C 	C 	0.90982 0.71068 0.45056 -0.04100
C 	C 	0.79156 0.12688 0.46419 -0.03500
C 	C 	0.27517 0.21870 0.44226 -0.03000
C 	C 	0.85977 0.14917 0.58723 -0.00700
C 	C 	0.88223 0.77551 0.56936 -0.02100
C 	C 	0.20209 0.10764 0.55565 -0.00200
C 	C 	0.88969 0.79815 0.49721 -0.01200
C 	C 	0.88343 0.13523 0.51595 -0.02300
C 	C 	0.18428 0.10865 0.48303 -0.01000
H 	H 	0.72413 0.15831 0.66249 0.05200
H 	H 	0.88380 0.64741 0.65110 0.04600
H 	H 	0.32843 0.20972 0.64451 0.05300
H 	H 	0.91019 0.73777 0.39599 0.05600
H 	H 	0.82060 0.12139 0.41055 0.06000
H 	H 	0.24254 0.21121 0.38817 0.07000
H 	H 	0.93072 0.15761 0.62811 0.02400
H 	H 	0.85615 0.83693 0.60512 0.03200
H 	H 	0.12412 0.02900 0.58801 0.04300
H 	H 	0.87122 0.87897 0.47656 0.04600
H 	H 	0.97528 0.13624 0.50017 0.04700
H 	H 	0.09592 0.02695 0.45755 0.05200
N 	N 	0.32044 0.90221 0.40328 -0.00600
O 	O 	0.34622 0.82855 0.35728 -0.06500
O 	O 	0.19928 0.88902 0.40515 -0.09900
N 	N 	0.10561 0.41154 0.40491 -0.01000
O 	O 	0.20370 0.50979 0.36930 -0.06600
O 	O 	0.06429 0.28279 0.38687 -0.12200
N 	N 	0.60045 0.70181 0.46757 -0.01700
O 	O 	0.61411 0.78150 0.52215 -0.09900
O 	O 	0.58551 0.74105 0.40479 -0.08900
N 	N 	0.16598 0.43006 0.54601 -0.01000
O 	O 	0.14244 0.32090 0.58133 -0.12200
O 	O 	0.28884 0.51900 0.52738 -0.07600
N 	N 	0.27157 0.83516 0.54388 -0.01500
O 	O 	0.23769 0.72167 0.50843 -0.06800
O 	O 	0.18018 0.85226 0.57721 -0.11200
N 	N 	0.67067 0.43692 0.54597 -0.01900
O 	O 	0.67704 0.37532 0.48774 -0.13200
O 	O 	0.68561 0.38851 0.60630 -0.12800
