data_crystal

_cell_length_a 15.88652
_cell_length_b 10.79270
_cell_length_c 9.64288
_cell_angle_alpha 90.18799
_cell_angle_beta  89.36788
_cell_angle_gamma 94.29474

_symmetry_space_group_name_	'P 1'
_symmetry_space_group_name_H-M	'P 1'

loop_
_symmetry_equiv_pos_as_xyz
  x,y,z

loop_
_atom_site_label
_atom_site_type_symbol
_atom_site_fract_x
_atom_site_fract_y
_atom_site_fract_z
_atom_site_charge
C 	C 	0.49435 0.26282 0.50003 0.30300
C 	C 	0.95011 0.51003 0.64994 -0.08900
C 	C 	0.91680 0.48893 0.50031 -0.02500
C 	C 	0.95998 0.59600 0.40589 0.01100
C 	C 	0.05693 0.57760 0.39636 0.01000
C 	C 	0.82446 0.49389 0.50028 0.05600
C 	C 	0.17544 0.48220 0.50461 0.07000
C 	C 	0.25105 0.48965 0.50287 -0.13300
C 	C 	0.36604 0.11389 0.66268 -0.04600
C 	C 	0.30683 0.04174 0.74108 -0.03000
C 	C 	0.30727 0.91298 0.73964 -0.02200
C 	C 	0.34055 0.49749 0.50080 0.33500
C 	C 	0.36709 0.85554 0.66020 -0.06300
C 	C 	0.42909 0.92671 0.58187 0.05400
C 	C 	0.42817 0.05786 0.58292 0.02200
C 	C 	0.48721 0.12870 0.49911 -0.06700
C 	C 	0.54112 0.07150 0.40935 -0.05500
C 	C 	0.54367 0.94395 0.40861 0.10500
C 	C 	0.48989 0.87078 0.49806 -0.13100
C 	C 	0.63030 0.63240 0.14481 -0.09100
C 	C 	0.70732 0.66129 0.07995 0.00800
C 	C 	0.71255 0.65427 0.93768 -0.07200
C 	C 	0.49700 0.73707 0.49980 0.32900
C 	C 	0.63812 0.63267 0.86199 0.06300
C 	C 	0.56555 0.56656 0.92571 0.01500
C 	C 	0.56414 0.56606 0.07473 0.07700
C 	C 	0.43907 0.43417 0.07414 0.09900
C 	C 	0.43974 0.43437 0.92615 -0.01300
C 	C 	0.65954 0.49984 0.49943 0.33100
C 	C 	0.04774 0.50738 0.65255 0.03900
C 	C 	0.04160 0.34937 0.45096 -0.00300
C 	C 	0.94092 0.35479 0.44688 0.08200
C 	C 	0.74901 0.49724 0.49908 -0.12800
C 	C 	0.08306 0.47799 0.50444 -0.03700
Cu	Cu	0.49999 0.49999 0.64066 0.92600
Cu	Cu	0.50001 0.50001 0.35934 0.92600
H 	H 	0.93262 0.60140 0.69017 0.04900
H 	H 	0.93348 0.58467 0.29962 0.02700
H 	H 	0.25944 0.08587 0.80120 0.03100
H 	H 	0.26014 0.85715 0.79861 0.03000
H 	H 	0.36237 0.75526 0.65846 0.06400
N 	N 	0.50080 0.50121 0.14791 -0.19500
N 	N 	0.50082 0.50129 0.85204 -0.16600
O 	O 	0.49999 0.31964 0.61881 -0.37400
O 	O 	0.50000 0.31966 0.38124 -0.37100
O 	O 	0.37943 0.49999 0.61884 -0.39300
O 	O 	0.37944 0.50002 0.38126 -0.38200
O 	O 	0.50000 0.68034 0.61876 -0.37400
O 	O 	0.50001 0.68036 0.38119 -0.37700
O 	O 	0.62056 0.49998 0.61874 -0.38100
O 	O 	0.62057 0.50001 0.38116 -0.38800
H 	H 	0.91891 0.44060 0.72223 0.04800
H 	H 	0.07377 0.60133 0.68247 0.02300
H 	H 	0.58451 0.12687 0.34256 0.05500
H 	H 	0.36094 0.21319 0.66262 0.05100
N 	N 	0.60263 0.89037 0.31924 -0.14400
H 	H 	0.59918 0.92063 0.21818 0.08000
C 	C 	0.68815 0.90286 0.36950 -0.08800
H 	H 	0.73064 0.86296 0.29240 0.04000
H 	H 	0.69214 0.85282 0.46937 0.04600
H 	H 	0.70976 0.00231 0.38354 0.04100
N 	N 	0.37589 0.35895 0.14613 -0.14500
H 	H 	0.38144 0.26535 0.13039 0.08500
C 	C 	0.29031 0.39274 0.12616 -0.08300
H 	H 	0.24724 0.33931 0.19939 0.04800
H 	H 	0.26934 0.37081 0.01875 0.04000
H 	H 	0.28577 0.49339 0.14698 0.05900
N 	N 	0.07397 0.42065 0.75670 -0.13900
H 	H 	0.04249 0.33380 0.75479 0.08000
C 	C 	0.08332 0.46925 0.89626 -0.09000
H 	H 	0.10558 0.39654 0.96522 0.04300
H 	H 	0.02182 0.49748 0.93662 0.04200
H 	H 	0.13085 0.55014 0.89782 0.04700
H 	H 	0.62448 0.66382 0.24890 0.07200
H 	H 	0.76082 0.70018 0.13824 0.02000
H 	H 	0.76956 0.69424 0.88738 0.04400
N 	N 	0.63155 0.71450 0.74889 -0.13200
H 	H 	0.68377 0.71852 0.68396 0.08200
C 	C 	0.61132 0.83831 0.79077 -0.08700
H 	H 	0.60965 0.89889 0.69842 0.05500
H 	H 	0.66010 0.88110 0.86155 0.04500
H 	H 	0.54861 0.83443 0.84347 0.06500
H 	H 	0.39131 0.37940 0.87055 0.03900
H 	H 	0.06547 0.33931 0.34283 0.03100
N 	N 	0.06642 0.23889 0.52509 -0.13300
H 	H 	0.02977 0.15971 0.49816 0.07400
C 	C 	0.15424 0.21053 0.52338 -0.09300
H 	H 	0.15891 0.11015 0.54495 0.04300
H 	H 	0.18889 0.26182 0.60745 0.05700
H 	H 	0.18414 0.23133 0.42059 0.04900
N 	N 	0.89986 0.25611 0.53596 -0.14100
H 	H 	0.92354 0.24874 0.63434 0.07700
C 	C 	0.81023 0.21887 0.53049 -0.08900
H 	H 	0.77621 0.26577 0.61443 0.05400
H 	H 	0.80089 0.11732 0.54868 0.04200
H 	H 	0.78217 0.23956 0.42930 0.05300
N 	N 	0.91391 0.33576 0.30232 -0.14600
H 	H 	0.85879 0.37369 0.27515 0.08000
C 	C 	0.92258 0.21566 0.23705 -0.08300
H 	H 	0.98525 0.18074 0.25580 0.04300
H 	H 	0.91532 0.22483 0.12324 0.03900
H 	H 	0.87306 0.14583 0.27534 0.04300
N 	N 	0.11217 0.69342 0.38942 -0.13600
H 	H 	0.16242 0.68940 0.32115 0.07600
C 	C 	0.13396 0.76820 0.51111 -0.09000
H 	H 	0.16179 0.86072 0.47719 0.04400
H 	H 	0.18210 0.72496 0.57341 0.05100
H 	H 	0.07805 0.78407 0.57634 0.04900
H 	H 	0.06475 0.53538 0.29165 0.02300
N 	N 	0.94617 0.72312 0.45142 -0.13400
H 	H 	0.97864 0.78835 0.38913 0.07800
C 	C 	0.86121 0.75994 0.47117 -0.09200
H 	H 	0.86185 0.86301 0.47322 0.03800
H 	H 	0.83538 0.72712 0.57291 0.04800
H 	H 	0.82050 0.72460 0.38483 0.04700
