data_crystal

_cell_length_a 18.73845
_cell_length_b 11.10436
_cell_length_c 18.61373
_cell_angle_alpha 90.00011
_cell_angle_beta  90.19943
_cell_angle_gamma 89.99927

_symmetry_space_group_name_	'P 1'
_symmetry_space_group_name_H-M	'P 1'

loop_
_symmetry_equiv_pos_as_xyz
  x,y,z

loop_
_atom_site_label
_atom_site_type_symbol
_atom_site_fract_x
_atom_site_fract_y
_atom_site_fract_z
_atom_site_charge
O 	O 	0.78754 0.04269 0.17047 -0.43000
O 	O 	0.21246 0.04269 0.82953 -0.43000
O 	O 	0.28754 0.54269 0.17047 -0.41400
O 	O 	0.71246 0.54269 0.82953 -0.41400
O 	O 	0.76566 0.29216 0.17505 -0.53000
O 	O 	0.23434 0.29216 0.82495 -0.53000
O 	O 	0.26566 0.79216 0.17505 -0.51600
O 	O 	0.73434 0.79216 0.82495 -0.51600
C 	C 	0.73229 0.38265 0.14818 0.41700
C 	C 	0.26771 0.38264 0.85182 0.41700
C 	C 	0.23229 0.88264 0.14818 0.38400
C 	C 	0.76771 0.88265 0.85182 0.38400
O 	O 	0.67019 0.40898 0.16855 -0.47900
O 	O 	0.32981 0.40898 0.83145 -0.47900
O 	O 	0.17019 0.90898 0.16855 -0.45300
O 	O 	0.82981 0.90898 0.83145 -0.45300
O 	O 	0.55658 0.25145 0.17516 -0.51300
O 	O 	0.44342 0.25145 0.82484 -0.51300
O 	O 	0.05658 0.75145 0.17516 -0.51100
O 	O 	0.94342 0.75145 0.82484 -0.51100
C 	C 	0.53043 0.15498 0.14719 0.39500
C 	C 	0.46957 0.15498 0.85281 0.39500
C 	C 	0.03042 0.65498 0.14719 0.40300
C 	C 	0.96957 0.65498 0.85281 0.40300
O 	O 	0.54592 0.04951 0.17032 -0.51100
O 	O 	0.45408 0.04951 0.82968 -0.51100
O 	O 	0.04592 0.54951 0.17032 -0.48600
O 	O 	0.95408 0.54951 0.82968 -0.48600
O 	O 	0.68139 0.95784 0.17671 -0.40200
O 	O 	0.31861 0.95784 0.82329 -0.40200
O 	O 	0.18139 0.45784 0.17671 -0.47100
O 	O 	0.81861 0.45784 0.82329 -0.47100
C 	C 	0.72641 0.02480 0.14012 0.25000
C 	C 	0.27359 0.02479 0.85989 0.25000
C 	C 	0.22641 0.52479 0.14011 0.28700
C 	C 	0.77359 0.52480 0.85988 0.28700
O 	O 	0.78750 0.04428 0.33099 -0.41000
O 	O 	0.21250 0.04428 0.66901 -0.41000
O 	O 	0.28750 0.54428 0.33099 -0.40000
O 	O 	0.71250 0.54428 0.66901 -0.40000
O 	O 	0.76561 0.29363 0.32386 -0.52000
O 	O 	0.23439 0.29363 0.67614 -0.52000
O 	O 	0.26561 0.79363 0.32386 -0.50700
O 	O 	0.73439 0.79363 0.67614 -0.50700
C 	C 	0.73237 0.38486 0.34955 0.41200
C 	C 	0.26763 0.38486 0.65045 0.41200
C 	C 	0.23237 0.88486 0.34955 0.37900
C 	C 	0.76763 0.88486 0.65045 0.37900
O 	O 	0.67014 0.41057 0.32908 -0.47100
O 	O 	0.32986 0.41057 0.67092 -0.47100
O 	O 	0.17014 0.91057 0.32908 -0.44500
O 	O 	0.82986 0.91057 0.67092 -0.44500
O 	O 	0.55654 0.25292 0.32397 -0.49600
O 	O 	0.44346 0.25292 0.67603 -0.49600
O 	O 	0.05654 0.75292 0.32397 -0.49400
O 	O 	0.94346 0.75292 0.67603 -0.49400
C 	C 	0.53115 0.15702 0.35295 0.40900
C 	C 	0.46885 0.15702 0.64705 0.40900
C 	C 	0.03115 0.65702 0.35295 0.41800
C 	C 	0.96885 0.65702 0.64705 0.41800
O 	O 	0.54587 0.05110 0.33084 -0.51300
O 	O 	0.45413 0.05110 0.66916 -0.51300
O 	O 	0.04587 0.55110 0.33084 -0.48700
O 	O 	0.95413 0.55110 0.66916 -0.48700
O 	O 	0.68134 0.95930 0.32551 -0.40500
O 	O 	0.31866 0.95930 0.67449 -0.40500
O 	O 	0.18134 0.45930 0.32551 -0.47600
O 	O 	0.81866 0.45930 0.67449 -0.47600
C 	C 	0.72740 0.02551 0.36191 0.27000
C 	C 	0.27260 0.02551 0.63809 0.27000
C 	C 	0.22740 0.52551 0.36191 0.31000
C 	C 	0.77260 0.52552 0.63809 0.31000
Cr	Cr	0.77200 0.16964 0.25011 1.53200
Cr	Cr	0.22800 0.16964 0.74989 1.53200
Cr	Cr	0.27200 0.66964 0.25011 1.53500
Cr	Cr	0.72800 0.66964 0.74989 1.53500
Cr	Cr	0.61496 0.32335 0.24926 1.54700
Cr	Cr	0.38504 0.32335 0.75074 1.54700
Cr	Cr	0.11496 0.82335 0.24926 1.54900
Cr	Cr	0.88504 0.82335 0.75074 1.54900
Cr	Cr	0.61667 0.01062 0.25084 1.51300
Cr	Cr	0.38333 0.01062 0.74916 1.51300
Cr	Cr	0.11667 0.51062 0.25084 1.53600
Cr	Cr	0.88333 0.51062 0.74916 1.53600
O 	O 	0.66788 0.16787 0.25007 -0.76300
O 	O 	0.33212 0.16787 0.74993 -0.76300
O 	O 	0.16788 0.66787 0.25007 -0.75500
O 	O 	0.83212 0.66787 0.74993 -0.75500
H 	H 	0.49893 0.96730 0.06335 0.09700
H 	H 	0.50104 0.96729 0.93665 0.09700
H 	H 	0.99892 0.46730 0.06336 0.04200
H 	H 	0.00103 0.46729 0.93666 0.04200
C 	C 	0.50150 0.16215 0.92487 -0.10700
C 	C 	0.49850 0.16215 0.07513 -0.10700
C 	C 	0.00149 0.66215 0.92487 -0.11700
C 	C 	0.99849 0.66216 0.07514 -0.11700
C 	C 	0.50654 0.27329 0.96236 0.04100
C 	C 	0.49349 0.27330 0.03763 0.04100
C 	C 	0.00652 0.77329 0.96236 0.05000
C 	C 	0.99347 0.77330 0.03764 0.05000
C 	C 	0.49803 0.05402 0.03668 -0.06100
C 	C 	0.50196 0.05401 0.96333 -0.06100
C 	C 	0.99802 0.55402 0.03668 0.00400
C 	C 	0.00195 0.55401 0.96333 0.00400
C 	C 	0.52188 0.38419 0.92749 -0.03200
C 	C 	0.47816 0.38422 0.07249 -0.03200
C 	C 	0.02186 0.88421 0.92749 -0.04200
C 	C 	0.97814 0.88423 0.07250 -0.04200
C 	C 	0.00994 0.99200 0.96412 0.05300
C 	C 	0.99005 0.99201 0.03586 0.05300
C 	C 	0.50997 0.49199 0.96411 -0.01300
C 	C 	0.49009 0.49200 0.03586 -0.01300
H 	H 	0.01657 0.07730 0.93699 0.00900
H 	H 	0.98341 0.07732 0.06297 0.00900
H 	H 	0.51661 0.57729 0.93699 0.06400
H 	H 	0.48347 0.57731 0.06297 0.06400
C 	C 	0.67388 0.94980 0.02501 0.10000
C 	C 	0.32612 0.94975 0.97499 0.10000
C 	C 	0.17387 0.44977 0.02500 -0.01800
C 	C 	0.82612 0.44975 0.97499 -0.01800
H 	H 	0.62739 0.91893 0.05392 0.04100
H 	H 	0.37260 0.91886 0.94608 0.04100
H 	H 	0.12739 0.41890 0.05391 0.05300
H 	H 	0.87260 0.41886 0.94608 0.05300
C 	C 	0.68002 0.92117 0.95205 -0.04200
C 	C 	0.31997 0.92113 0.04795 -0.04200
C 	C 	0.18002 0.42115 0.95205 0.02400
C 	C 	0.81997 0.42112 0.04795 0.02400
H 	H 	0.63742 0.87446 0.92466 0.06300
H 	H 	0.36257 0.87441 0.07534 0.06300
H 	H 	0.13743 0.37444 0.92466 0.03800
H 	H 	0.86256 0.37437 0.07534 0.03800
C 	C 	0.74319 0.94721 0.91621 0.00100
C 	C 	0.25680 0.94719 0.08378 0.00100
C 	C 	0.24320 0.44719 0.91622 -0.11900
C 	C 	0.75680 0.44720 0.08379 -0.11900
C 	C 	0.79069 0.02868 0.94729 -0.10200
C 	C 	0.20930 0.02864 0.05270 -0.10200
C 	C 	0.29070 0.52864 0.94730 0.02400
C 	C 	0.70932 0.52869 0.05271 0.02400
H 	H 	0.83580 0.06050 0.91640 0.06600
H 	H 	0.16419 0.06048 0.08358 0.06600
H 	H 	0.33581 0.56047 0.91642 0.05900
H 	H 	0.66422 0.56056 0.08360 0.05900
C 	C 	0.78553 0.06175 0.01901 0.04900
C 	C 	0.21447 0.06171 0.98099 0.04900
C 	C 	0.28553 0.56171 0.01901 -0.00300
C 	C 	0.71449 0.56174 0.98099 -0.00300
C 	C 	0.72912 0.01177 0.06096 -0.15000
C 	C 	0.27088 0.01174 0.93904 -0.15000
C 	C 	0.22912 0.51174 0.06096 -0.05400
C 	C 	0.77089 0.51175 0.93904 -0.05400
C 	C 	0.49914 0.05659 0.46342 -0.05800
C 	C 	0.50086 0.05659 0.53658 -0.05800
C 	C 	0.99915 0.55659 0.46343 0.00700
C 	C 	0.00086 0.55659 0.53658 0.00700
H 	H 	0.49987 0.96972 0.43691 0.10200
H 	H 	0.50013 0.96972 0.56309 0.10200
H 	H 	0.99988 0.46972 0.43691 0.04600
H 	H 	0.00014 0.46972 0.56309 0.04600
C 	C 	0.49745 0.16490 0.57462 -0.10700
C 	C 	0.50255 0.16490 0.42538 -0.10700
C 	C 	0.99745 0.66490 0.57462 -0.11800
C 	C 	0.00255 0.66490 0.42539 -0.11800
C 	C 	0.50048 0.27605 0.53780 0.08600
C 	C 	0.49952 0.27605 0.46220 0.08600
C 	C 	0.00048 0.77606 0.53780 0.09500
C 	C 	0.99952 0.77606 0.46220 0.09500
C 	C 	0.78989 0.05807 0.48352 0.14800
C 	C 	0.21011 0.05806 0.51648 0.14800
C 	C 	0.28989 0.55806 0.48352 0.10600
C 	C 	0.71011 0.55807 0.51648 0.10600
C 	C 	0.79071 0.03173 0.55628 -0.13700
C 	C 	0.20929 0.03172 0.44372 -0.13700
C 	C 	0.29071 0.53173 0.55629 -0.01500
C 	C 	0.70929 0.53173 0.44372 -0.01500
H 	H 	0.83436 0.06596 0.58851 0.09000
H 	H 	0.16563 0.06595 0.41149 0.09000
H 	H 	0.33436 0.56596 0.58851 0.08500
H 	H 	0.66563 0.56595 0.41149 0.08500
C 	C 	0.74327 0.94968 0.58633 0.02700
C 	C 	0.25672 0.94968 0.41367 0.02700
C 	C 	0.24327 0.44968 0.58633 -0.09200
C 	C 	0.75672 0.44968 0.41367 -0.09300
C 	C 	0.68171 0.92001 0.54884 -0.05400
C 	C 	0.31829 0.92001 0.45116 -0.05400
C 	C 	0.18171 0.42000 0.54884 0.01000
C 	C 	0.81829 0.42001 0.45116 0.01000
H 	H 	0.64004 0.86944 0.57512 0.07800
H 	H 	0.35996 0.86944 0.42488 0.07800
H 	H 	0.14004 0.36943 0.57512 0.05400
H 	H 	0.85996 0.36945 0.42488 0.05400
C 	C 	0.67620 0.95026 0.47611 0.12000
C 	C 	0.32380 0.95026 0.52389 0.12000
C 	C 	0.17620 0.45024 0.47611 0.00400
C 	C 	0.82380 0.45026 0.52389 0.00400
H 	H 	0.62944 0.92121 0.44665 0.04000
H 	H 	0.37056 0.92122 0.55335 0.04000
H 	H 	0.12945 0.42120 0.44665 0.05200
H 	H 	0.87056 0.42122 0.55335 0.05200
C 	C 	0.73249 0.01017 0.44070 -0.17300
C 	C 	0.26751 0.01017 0.55930 -0.17300
C 	C 	0.23249 0.51016 0.44070 -0.08200
C 	C 	0.76752 0.51017 0.55930 -0.08200
N 	N 	0.84928 0.12974 0.45792 -0.02600
O 	O 	0.88070 0.20163 0.50328 -0.12100
O 	O 	0.88793 0.09391 0.40442 -0.10600
N 	N 	0.15072 0.12974 0.54208 -0.02600
O 	O 	0.11929 0.20162 0.49672 -0.12100
O 	O 	0.11207 0.09392 0.59558 -0.10600
N 	N 	0.34928 0.62974 0.45792 -0.02000
O 	O 	0.38070 0.70162 0.50328 -0.10700
O 	O 	0.38793 0.59391 0.40443 -0.08000
N 	N 	0.65072 0.62974 0.54208 -0.02000
O 	O 	0.61930 0.70162 0.49672 -0.10700
O 	O 	0.61207 0.59391 0.59558 -0.08000
C 	C 	0.55844 0.38933 0.85678 0.12500
H 	H 	0.58455 0.30985 0.83542 0.01900
O 	O 	0.55966 0.48211 0.82156 -0.20900
C 	C 	0.44159 0.38939 0.14320 0.12500
H 	H 	0.41556 0.30989 0.16462 0.01900
O 	O 	0.44024 0.48225 0.17834 -0.20900
C 	C 	0.05843 0.88935 0.85679 0.13500
H 	H 	0.08446 0.80984 0.83537 0.02800
O 	O 	0.05979 0.98219 0.82164 -0.17800
C 	C 	0.94158 0.88938 0.14320 0.13500
H 	H 	0.91540 0.80994 0.16454 0.02900
O 	O 	0.94044 0.98216 0.17846 -0.17800
C 	C 	0.84206 0.14477 0.04583 0.08800
H 	H 	0.84738 0.17090 0.10109 0.01800
O 	O 	0.88516 0.18883 0.00426 -0.20800
C 	C 	0.15801 0.14481 0.95416 0.08800
H 	H 	0.15289 0.17121 0.89897 0.01800
O 	O 	0.11479 0.18869 0.99567 -0.20800
C 	C 	0.34200 0.64480 0.04584 0.11600
H 	H 	0.34712 0.67120 0.10104 0.01700
O 	O 	0.38522 0.68867 0.00434 -0.20400
C 	C 	0.65802 0.64484 0.95417 0.11600
H 	H 	0.65289 0.67121 0.89896 0.01700
O 	O 	0.61480 0.68873 0.99567 -0.20400
N 	N 	0.50510 0.38697 0.57715 -0.01000
O 	O 	0.54725 0.39430 0.63271 -0.09300
O 	O 	0.46232 0.47595 0.56263 -0.07600
N 	N 	0.49490 0.38697 0.42285 -0.01000
O 	O 	0.45274 0.39430 0.36729 -0.09300
O 	O 	0.53768 0.47595 0.43737 -0.07600
N 	N 	0.00510 0.88697 0.57715 -0.01200
O 	O 	0.04726 0.89430 0.63271 -0.06900
O 	O 	0.96231 0.97594 0.56263 -0.04700
N 	N 	0.99489 0.88697 0.42285 -0.01200
O 	O 	0.95274 0.89430 0.36729 -0.06900
O 	O 	0.03767 0.97596 0.43737 -0.04700
