data_crystal

_cell_length_a 16.54678
_cell_length_b 7.25422
_cell_length_c 15.22888
_cell_angle_alpha 90.00960
_cell_angle_beta  94.76933
_cell_angle_gamma 89.99982

_symmetry_space_group_name_	'P 1'
_symmetry_space_group_name_H-M	'P 1'

loop_
_symmetry_equiv_pos_as_xyz
  x,y,z

loop_
_atom_site_label
_atom_site_type_symbol
_atom_site_fract_x
_atom_site_fract_y
_atom_site_fract_z
_atom_site_charge
O 	O 	0.66346 0.36176 0.16597 -0.46200
O 	O 	0.33654 0.63824 0.83403 -0.46200
O 	O 	0.83654 0.86176 0.33403 -0.46300
O 	O 	0.16346 0.13824 0.66597 -0.46300
O 	O 	0.82710 0.68987 0.16373 -0.47800
O 	O 	0.17290 0.31013 0.83627 -0.47800
O 	O 	0.67290 0.18987 0.33627 -0.47800
O 	O 	0.32710 0.81013 0.66373 -0.47800
H 	H 	0.21135 0.06392 0.50041 0.06000
H 	H 	0.78865 0.93608 0.49959 0.06000
H 	H 	0.28841 0.55875 0.00019 0.06000
H 	H 	0.71159 0.44125 0.99981 0.06000
C 	C 	0.85326 0.52293 0.14356 0.36500
C 	C 	0.14674 0.47707 0.85644 0.36500
C 	C 	0.64674 0.02294 0.35644 0.36600
C 	C 	0.35326 0.97706 0.64356 0.36600
O 	O 	0.66349 0.69137 0.15550 -0.46700
O 	O 	0.33651 0.30863 0.84450 -0.46700
O 	O 	0.83651 0.19137 0.34450 -0.46700
O 	O 	0.16349 0.80863 0.65550 -0.46700
O 	O 	0.67177 0.86332 0.32574 -0.47800
O 	O 	0.32823 0.13668 0.67426 -0.47800
O 	O 	0.82823 0.36332 0.17426 -0.47700
O 	O 	0.17177 0.63668 0.82574 -0.47700
C 	C 	0.63610 0.52287 0.13386 0.34000
C 	C 	0.36390 0.47713 0.86614 0.34000
C 	C 	0.86391 0.02288 0.36612 0.34100
C 	C 	0.13608 0.97712 0.63388 0.34100
O 	O 	0.75291 0.52880 0.30586 -0.59200
O 	O 	0.24709 0.47120 0.69414 -0.59200
O 	O 	0.74709 0.02880 0.19414 -0.59100
O 	O 	0.25291 0.97120 0.80586 -0.59100
V 	V 	0.74946 0.80301 0.23964 1.80300
V 	V 	0.25054 0.19699 0.76036 1.80300
V 	V 	0.75054 0.30301 0.26036 1.80300
V 	V 	0.24946 0.69699 0.73964 1.80300
C 	C 	0.46878 0.99470 0.53006 0.06800
C 	C 	0.53122 0.00530 0.46994 0.06800
C 	C 	0.03122 0.49471 0.96994 0.06800
C 	C 	0.96878 0.50530 0.03006 0.06800
H 	H 	0.76611 0.85408 0.64886 0.08400
H 	H 	0.23389 0.14592 0.35114 0.08400
H 	H 	0.73433 0.36330 0.85006 0.08400
H 	H 	0.26567 0.63670 0.14994 0.08400
C 	C 	0.02869 0.09743 0.32507 -0.08400
C 	C 	0.97131 0.90257 0.67493 -0.08400
C 	C 	0.47110 0.59275 0.17547 -0.08400
C 	C 	0.52890 0.40725 0.82453 -0.08400
C 	C 	0.10766 0.13252 0.30203 0.10700
C 	C 	0.89234 0.86748 0.69797 0.10700
C 	C 	0.39202 0.62539 0.19881 0.10700
C 	C 	0.60798 0.37461 0.80119 0.10700
C 	C 	0.17233 0.12015 0.36704 -0.05400
C 	C 	0.82767 0.87985 0.63296 -0.05400
C 	C 	0.32732 0.61276 0.13383 -0.05400
C 	C 	0.67268 0.38724 0.86617 -0.05400
C 	C 	0.15886 0.07296 0.45325 -0.01700
C 	C 	0.84114 0.92704 0.54675 -0.01700
C 	C 	0.34089 0.56792 0.04735 -0.01700
C 	C 	0.65911 0.43208 0.95265 -0.01700
C 	C 	0.07984 0.03708 0.47762 0.03500
C 	C 	0.92015 0.96292 0.52238 0.03500
C 	C 	0.42002 0.53455 0.02268 0.03500
C 	C 	0.57998 0.46545 0.97732 0.03500
C 	C 	0.01337 0.04991 0.41231 0.06400
C 	C 	0.98663 0.95009 0.58769 0.06400
C 	C 	0.48651 0.54745 0.08798 0.06400
C 	C 	0.51349 0.45255 0.91202 0.06400
C 	C 	0.06663 0.98699 0.56530 -0.09100
C 	C 	0.93337 0.01301 0.43469 -0.09100
C 	C 	0.43336 0.48699 0.93470 -0.09200
C 	C 	0.56664 0.51301 0.06530 -0.09200
C 	C 	0.41594 0.98615 0.58140 -0.07600
C 	C 	0.58406 0.01385 0.41860 -0.07600
C 	C 	0.08407 0.48617 0.91861 -0.07600
C 	C 	0.91593 0.51383 0.08139 -0.07600
H 	H 	0.97934 0.10719 0.27407 0.08400
H 	H 	0.02066 0.89281 0.72593 0.08400
H 	H 	0.52048 0.60263 0.22644 0.08400
H 	H 	0.47952 0.39737 0.77356 0.08400
N 	N 	0.12211 0.17963 0.21277 -0.02200
O 	O 	0.19475 0.22121 0.19235 -0.09500
O 	O 	0.06294 0.17968 0.15086 -0.09500
N 	N 	0.87789 0.82037 0.78723 -0.02200
O 	O 	0.80525 0.77879 0.80765 -0.09500
O 	O 	0.93706 0.82032 0.84914 -0.09500
N 	N 	0.37749 0.67038 0.28831 -0.02200
O 	O 	0.30450 0.70704 0.30930 -0.09500
O 	O 	0.43696 0.67364 0.34986 -0.09500
N 	N 	0.62251 0.32962 0.71169 -0.02200
O 	O 	0.69550 0.29296 0.69070 -0.09500
O 	O 	0.56304 0.32636 0.65013 -0.09500
