data_crystal

_cell_length_a 6.94349
_cell_length_b 13.63256
_cell_length_c 20.42528
_cell_angle_alpha 102.13379
_cell_angle_beta  89.61725
_cell_angle_gamma 90.66425

_symmetry_space_group_name_	'P 1'
_symmetry_space_group_name_H-M	'P 1'

loop_
_symmetry_equiv_pos_as_xyz
  x,y,z

loop_
_atom_site_label
_atom_site_type_symbol
_atom_site_fract_x
_atom_site_fract_y
_atom_site_fract_z
_atom_site_charge
O 	O 	0.50686 0.59939 0.44924 -0.47800
O 	O 	0.18022 0.59460 0.58678 -0.47400
O 	O 	0.00450 0.40061 0.55076 -0.48400
C 	C 	0.34736 0.61428 0.61425 0.43500
O 	O 	0.17749 0.61129 0.45197 -0.48900
O 	O 	0.00175 0.41742 0.41499 -0.49800
C 	C 	0.34726 0.63789 0.43519 0.38800
O 	O 	0.50961 0.58258 0.58501 -0.47900
O 	O 	0.33742 0.43637 0.48802 -0.64200
V 	V 	0.06468 0.51180 0.50222 1.80700
O 	O 	0.67171 0.40540 0.41322 -0.50100
C 	C 	0.84011 0.38410 0.38654 0.41500
O 	O 	0.67444 0.38871 0.54803 -0.48300
C 	C 	0.84220 0.36224 0.56494 0.40300
V 	V 	0.56401 0.48820 0.49778 1.80800
O 	O 	0.84114 0.56363 0.51198 -0.62300
C 	C 	0.82920 0.11126 0.61282 -0.07000
H 	H 	0.82096 0.16151 0.52017 0.03100
H 	H 	0.82570 0.98594 0.69592 0.05200
H 	H 	0.81780 0.03297 0.58789 0.05600
C 	C 	0.84703 0.28529 0.60501 -0.10300
C 	C 	0.87838 0.31546 0.92848 0.03300
C 	C 	0.88089 0.39161 0.89276 -0.04600
C 	C 	0.87242 0.36891 0.82306 -0.02000
C 	C 	0.86078 0.26815 0.78695 -0.00700
C 	C 	0.85633 0.19038 0.82406 0.06800
C 	C 	0.85352 0.24197 0.71543 -0.01000
C 	C 	0.83972 0.13905 0.68293 0.04000
C 	C 	0.83570 0.06448 0.72044 -0.03800
C 	C 	0.84434 0.08950 0.78980 -0.04800
C 	C 	0.85870 0.31419 0.67477 0.01500
C 	C 	0.83150 0.18405 0.57416 0.03600
C 	C 	0.86562 0.21518 0.89493 -0.11900
H 	H 	0.86939 0.39354 0.69545 0.05300
H 	H 	0.88686 0.33476 0.98264 0.03300
H 	H 	0.87535 0.43217 0.79916 0.05300
H 	H 	0.89035 0.46910 0.91931 0.05200
H 	H 	0.84108 0.02867 0.81640 0.05900
C 	C 	0.00567 0.28874 0.28465 0.00700
C 	C 	0.84271 0.31577 0.31978 -0.15800
H 	H 	0.14300 0.31721 0.30625 0.04400
H 	H 	0.70397 0.28779 0.29976 0.08600
C 	C 	0.01335 0.22069 0.21702 0.00800
C 	C 	0.85795 0.18320 0.18040 -0.15900
H 	H 	0.15618 0.20158 0.19663 0.04200
H 	H 	0.71374 0.20145 0.19916 0.08700
C 	C 	0.20362 0.78151 0.78710 -0.03400
C 	C 	0.36509 0.81345 0.82098 -0.14400
H 	H 	0.06593 0.80797 0.80913 0.07200
H 	H 	0.50403 0.78532 0.80156 0.09200
C 	C 	0.19794 0.70678 0.72236 0.20800
C 	C 	0.35357 0.68357 0.68099 -0.22700
H 	H 	0.49212 0.71855 0.69528 0.12100
C 	C 	0.41545 0.88663 0.38668 -0.07000
H 	H 	0.41286 0.83634 0.47941 0.03200
H 	H 	0.44584 0.01087 0.30325 0.04200
H 	H 	0.44397 0.96385 0.41136 0.05300
C 	C 	0.36003 0.71462 0.39501 -0.10500
C 	C 	0.31788 0.68606 0.07188 0.03100
C 	C 	0.29892 0.61056 0.10780 -0.04900
C 	C 	0.31328 0.63272 0.17738 -0.02000
C 	C 	0.34769 0.73224 0.21316 -0.01000
C 	C 	0.36861 0.80925 0.17585 0.06700
C 	C 	0.36189 0.75793 0.28455 -0.01200
C 	C 	0.39839 0.85950 0.31672 0.03700
C 	C 	0.41832 0.93334 0.27900 -0.03700
C 	C 	0.40336 0.90887 0.20976 -0.05200
C 	C 	0.34182 0.68645 0.32541 0.01300
C 	C 	0.39741 0.81444 0.42554 0.03500
C 	C 	0.35299 0.78504 0.10511 -0.11800
H 	H 	0.31392 0.60813 0.30498 0.03400
H 	H 	0.30470 0.66731 0.01783 0.03300
H 	H 	0.29662 0.57004 0.20144 0.03800
H 	H 	0.27204 0.53405 0.08151 0.04600
H 	H 	0.41974 0.96910 0.18298 0.05600
O 	O 	0.20323 0.91731 0.91502 -0.48900
O 	O 	0.53550 0.88869 0.04804 -0.48400
O 	O 	0.71108 0.08261 0.08500 -0.49200
C 	C 	0.36579 0.86228 0.06500 0.39100
O 	O 	0.53263 0.90537 0.91323 -0.49400
O 	O 	0.70819 0.09941 0.94923 -0.48000
C 	C 	0.36496 0.88380 0.88672 0.39900
O 	O 	0.20612 0.90051 0.05079 -0.47800
O 	O 	0.37536 0.06357 0.01199 -0.64500
V 	V 	0.64817 0.98820 0.99778 1.80700
O 	O 	0.03824 0.11139 0.95194 -0.49500
C 	C 	0.87049 0.13766 0.93493 0.40000
O 	O 	0.04112 0.09471 0.08675 -0.51000
C 	C 	0.87217 0.11570 0.11353 0.41500
V 	V 	0.14881 0.01193 0.00218 1.80400
O 	O 	0.87175 0.93643 0.98801 -0.63800
Cl	Cl	0.96918 0.64965 0.70366 -0.32500
