data_crystal

_cell_length_a 6.95880
_cell_length_b 13.51255
_cell_length_c 20.28349
_cell_angle_alpha 103.05895
_cell_angle_beta  90.10227
_cell_angle_gamma 90.46686

_symmetry_space_group_name_	'P 1'
_symmetry_space_group_name_H-M	'P 1'

loop_
_symmetry_equiv_pos_as_xyz
  x,y,z

loop_
_atom_site_label
_atom_site_type_symbol
_atom_site_fract_x
_atom_site_fract_y
_atom_site_fract_z
_atom_site_charge
O 	O 	0.50677 0.59970 0.44955 -0.48100
O 	O 	0.17998 0.59574 0.58796 -0.49200
O 	O 	0.00458 0.40030 0.55045 -0.47400
C 	C 	0.34841 0.61777 0.61506 0.38300
O 	O 	0.17738 0.61170 0.45238 -0.48600
O 	O 	0.00197 0.41637 0.41390 -0.48400
C 	C 	0.34635 0.63879 0.43598 0.38400
O 	O 	0.50939 0.58363 0.58610 -0.48600
O 	O 	0.33753 0.43589 0.48753 -0.64600
V 	V 	0.06466 0.51189 0.50231 1.80900
O 	O 	0.67195 0.40426 0.41204 -0.49700
C 	C 	0.84015 0.38496 0.38406 0.37200
O 	O 	0.67454 0.38830 0.54762 -0.48800
C 	C 	0.84334 0.35828 0.56210 0.37300
V 	V 	0.56403 0.48811 0.49769 1.80700
O 	O 	0.84103 0.56411 0.51247 -0.64800
C 	C 	0.86268 0.10132 0.61065 -0.09500
H 	H 	0.87302 0.97873 0.69500 0.03900
H 	H 	0.86729 0.02056 0.58763 0.05400
C 	C 	0.85118 0.27665 0.59984 -0.11500
C 	C 	0.85622 0.31849 0.92888 0.02600
C 	C 	0.84981 0.39400 0.89237 -0.04900
C 	C 	0.84964 0.36887 0.82177 -0.02300
C 	C 	0.85595 0.26623 0.78551 -0.00600
C 	C 	0.86195 0.18916 0.82353 0.06100
C 	C 	0.85652 0.23722 0.71302 -0.02100
C 	C 	0.86254 0.13266 0.68109 0.04700
C 	C 	0.86829 0.05885 0.71939 -0.04600
C 	C 	0.86804 0.08645 0.78936 -0.04800
C 	C 	0.85131 0.30788 0.67098 0.01800
C 	C 	0.85672 0.17069 0.56877 0.07800
C 	C 	0.86212 0.21625 0.89524 -0.11300
H 	H 	0.84677 0.38856 0.69205 0.03200
H 	H 	0.85651 0.33983 0.98369 0.03000
H 	H 	0.84444 0.43166 0.79725 0.03700
H 	H 	0.84503 0.47299 0.91904 0.04400
H 	H 	0.87260 0.02615 0.81650 0.04900
C 	C 	0.71357 0.25467 0.20240 0.04800
C 	C 	0.86741 0.18845 0.18263 -0.11400
C 	C 	0.02130 0.19440 0.22864 0.00500
H 	H 	0.14274 0.14457 0.21576 0.03500
C 	C 	0.01354 0.25925 0.29363 0.00000
H 	H 	0.12994 0.25800 0.32877 0.03800
C 	C 	0.85076 0.31933 0.31484 -0.11300
C 	C 	0.70525 0.31824 0.26691 0.04400
C 	C 	0.49515 0.30036 0.27241 -0.08500
C 	C 	0.50405 0.23155 0.20204 -0.08600
H 	H 	0.41058 0.37043 0.27446 0.05500
H 	H 	0.46203 0.25883 0.31254 0.05600
H 	H 	0.42503 0.26190 0.16331 0.06100
H 	H 	0.47544 0.15033 0.20133 0.05700
C 	C 	0.49998 0.67892 0.73000 0.04600
C 	C 	0.35191 0.68385 0.68418 -0.10700
C 	C 	0.19638 0.74845 0.70807 -0.00000
H 	H 	0.07771 0.75420 0.67473 0.04200
C 	C 	0.19781 0.81120 0.77378 0.00200
H 	H 	0.08129 0.86373 0.78892 0.04000
C 	C 	0.35504 0.81146 0.81751 -0.10800
C 	C 	0.50202 0.74159 0.79485 0.04600
C 	C 	0.71339 0.75916 0.79241 -0.08500
C 	C 	0.71096 0.69071 0.72184 -0.08600
H 	H 	0.79300 0.72638 0.82989 0.05800
H 	H 	0.74883 0.83964 0.79286 0.05600
H 	H 	0.78867 0.61819 0.71853 0.05500
H 	H 	0.74517 0.73137 0.68135 0.06000
C 	C 	0.35734 0.89250 0.38981 -0.07200
H 	H 	0.35325 0.84259 0.48299 0.02800
H 	H 	0.35863 0.01846 0.30676 0.03500
H 	H 	0.35768 0.97207 0.41562 0.04800
C 	C 	0.35498 0.71629 0.39621 -0.10500
C 	C 	0.35646 0.68207 0.06966 0.03100
C 	C 	0.35358 0.60546 0.10518 -0.05100
C 	C 	0.35336 0.62926 0.17570 -0.02000
C 	C 	0.35547 0.73165 0.21286 -0.01100
C 	C 	0.35672 0.80989 0.17600 0.06600
C 	C 	0.35660 0.75901 0.28519 -0.01200
C 	C 	0.35760 0.86359 0.31880 0.03400
C 	C 	0.35810 0.93864 0.28148 -0.03800
C 	C 	0.35777 0.91238 0.21127 -0.05300
C 	C 	0.35622 0.68630 0.32559 0.01300
C 	C 	0.35525 0.81918 0.42827 0.03200
C 	C 	0.35786 0.78392 0.10429 -0.11800
H 	H 	0.35518 0.60572 0.30409 0.03300
H 	H 	0.35812 0.66190 0.01482 0.03100
H 	H 	0.35162 0.56550 0.19933 0.03700
H 	H 	0.35230 0.52673 0.07783 0.04600
H 	H 	0.35793 0.97344 0.18476 0.05100
O 	O 	0.20345 0.91632 0.91391 -0.48500
O 	O 	0.53552 0.88830 0.04762 -0.48700
O 	O 	0.71086 0.08365 0.08610 -0.48700
C 	C 	0.36664 0.86173 0.06444 0.38800
O 	O 	0.53286 0.90425 0.91204 -0.49500
O 	O 	0.70819 0.09971 0.94955 -0.47600
C 	C 	0.36424 0.88265 0.88479 0.38300
O 	O 	0.20612 0.90026 0.05046 -0.47700
O 	O 	0.37528 0.06408 0.01247 -0.64600
V 	V 	0.64818 0.98811 0.99769 1.80700
O 	O 	0.03822 0.11174 0.95237 -0.47800
C 	C 	0.86971 0.13896 0.93592 0.37600
O 	O 	0.04088 0.09579 0.08794 -0.49300
C 	C 	0.87279 0.11724 0.11525 0.37800
V 	V 	0.14880 0.01195 0.00230 1.80600
O 	O 	0.87182 0.93592 0.98753 -0.65000
C 	C 	0.85754 0.12030 0.49343 -0.07800
C 	C 	0.85059 0.18705 0.44275 -0.13900
H 	H 	0.71455 0.23010 0.44819 0.06800
H 	H 	0.97903 0.23733 0.44875 0.06800
H 	H 	0.85327 0.13825 0.39074 0.05700
H 	H 	0.98930 0.07338 0.48256 0.04400
H 	H 	0.73237 0.06726 0.48262 0.04600
