data_crystal

_cell_length_a 12.69576
_cell_length_b 12.72913
_cell_length_c 26.95426
_cell_angle_alpha 90.05822
_cell_angle_beta  90.00322
_cell_angle_gamma 119.95723

_symmetry_space_group_name_	'P 1'
_symmetry_space_group_name_H-M	'P 1'

loop_
_symmetry_equiv_pos_as_xyz
  x,y,z

loop_
_atom_site_label
_atom_site_type_symbol
_atom_site_fract_x
_atom_site_fract_y
_atom_site_fract_z
_atom_site_charge
C 	C 	0.55782 0.45548 0.82186 0.43500
C 	C 	0.45564 0.56231 0.17674 0.43700
C 	C 	0.04643 0.32815 0.47701 0.04800
C 	C 	0.28263 0.95596 0.02251 0.03800
C 	C 	0.67170 0.72629 0.48281 0.04800
C 	C 	0.29123 0.96953 0.52874 0.03900
C 	C 	0.08114 0.36593 0.97076 0.04600
C 	C 	0.66088 0.72170 0.53507 0.04800
C 	C 	0.28472 0.93651 0.97064 0.05000
C 	C 	0.03941 0.32763 0.52973 0.04300
C 	C 	0.65542 0.72038 0.96568 0.04500
C 	C 	0.08841 0.24897 0.04581 -0.17500
C 	C 	0.44286 0.90157 0.32155 0.42400
C 	C 	0.16625 0.92934 0.44977 -0.16500
C 	C 	0.77824 0.82959 0.04218 -0.17700
C 	C 	0.09103 0.25157 0.45111 -0.17700
C 	C 	0.16886 0.94629 0.04602 -0.15900
C 	C 	0.78617 0.82501 0.45843 -0.17600
C 	C 	0.18715 0.96613 0.55833 -0.14800
C 	C 	0.17073 0.34027 0.94404 -0.17900
C 	C 	0.73833 0.83584 0.56528 -0.17700
C 	C 	0.16611 0.86740 0.94238 -0.18200
C 	C 	0.04519 0.22813 0.55891 -0.17100
C 	C 	0.09863 0.54131 0.17849 0.41800
C 	C 	0.72713 0.83487 0.93510 -0.17700
C 	C 	0.98363 0.48927 0.97567 0.01900
C 	C 	0.50435 0.01941 0.52441 0.01300
C 	C 	0.52338 0.49985 0.97399 0.01900
C 	C 	0.98753 0.48930 0.52550 0.02100
C 	C 	0.50447 0.01712 0.97538 0.01900
C 	C 	0.51376 0.50393 0.52772 0.02400
C 	C 	0.49703 0.01005 0.47233 0.02200
C 	C 	0.89888 0.44250 0.67803 0.42400
C 	C 	0.99416 0.49122 0.02763 0.02300
C 	C 	0.51205 0.51510 0.47595 0.02500
C 	C 	0.49630 0.00828 0.02749 0.00800
C 	C 	0.99761 0.49160 0.47346 0.02400
C 	C 	0.51904 0.51228 0.02550 0.02700
C 	C 	0.89341 0.61862 0.98245 -0.03900
C 	C 	0.72024 0.08572 0.51924 -0.03900
C 	C 	0.40787 0.27995 0.98403 -0.03800
C 	C 	0.92304 0.64042 0.52031 -0.03500
C 	C 	0.72344 0.09772 0.98165 -0.03400
C 	C 	0.54444 0.10242 0.82232 0.42800
C 	C 	0.37993 0.28596 0.51894 -0.03400
C 	C 	0.71106 0.06875 0.46813 -0.02900
C 	C 	0.91867 0.63282 0.03317 -0.03400
C 	C 	0.37632 0.29778 0.46782 -0.03700
C 	C 	0.71315 0.07928 0.03274 -0.04000
C 	C 	0.94055 0.64750 0.46920 -0.03400
C 	C 	0.39841 0.29354 0.03484 -0.03600
C 	C 	0.91436 0.54573 0.90196 0.03100
C 	C 	0.62851 0.07565 0.59893 0.03500
C 	C 	0.46761 0.36870 0.90241 0.03700
C 	C 	0.55669 0.45637 0.67860 0.43100
C 	C 	0.92941 0.55600 0.59980 0.03600
C 	C 	0.63033 0.08016 0.90145 0.03500
C 	C 	0.44923 0.37400 0.59992 0.04000
C 	C 	0.58617 0.99598 0.39401 0.05400
C 	C 	0.00167 0.58839 0.10650 0.03700
C 	C 	0.42285 0.42631 0.39558 0.03300
C 	C 	0.58671 0.00049 0.10635 0.02100
C 	C 	0.01059 0.59335 0.39502 0.03600
C 	C 	0.43084 0.42392 0.10586 0.03500
C 	C 	0.03366 0.51064 0.13014 -0.18200
C 	C 	0.89712 0.44157 0.82243 0.42500
C 	C 	0.47825 0.96798 0.36970 -0.18500
C 	C 	0.48011 0.54054 0.12557 -0.18300
C 	C 	0.03620 0.51223 0.37052 -0.18300
C 	C 	0.47673 0.96724 0.13007 -0.15900
C 	C 	0.48077 0.54191 0.37477 -0.18000
C 	C 	0.52615 0.04669 0.62794 -0.19800
C 	C 	0.95032 0.47818 0.87250 -0.18700
C 	C 	0.51653 0.47515 0.63016 -0.19400
C 	C 	0.52752 0.04781 0.87210 -0.19900
C 	C 	0.95600 0.48088 0.62869 -0.18900
C 	C 	0.54388 0.10150 0.67782 0.42700
C 	C 	0.52190 0.47063 0.87155 -0.19800
C 	C 	0.93116 0.55224 0.95317 -0.01700
C 	C 	0.61752 0.05790 0.54774 -0.01600
C 	C 	0.46543 0.38236 0.95333 -0.02100
C 	C 	0.94903 0.56412 0.54877 -0.01600
C 	C 	0.61950 0.06322 0.95263 -0.02000
C 	C 	0.44548 0.38791 0.54905 -0.01900
C 	C 	0.59920 0.02651 0.44453 -0.02700
C 	C 	0.97004 0.57054 0.05606 -0.02200
C 	C 	0.43752 0.41242 0.44616 -0.01700
C 	C 	0.45565 0.56302 0.32348 0.43400
C 	C 	0.59977 0.03083 0.05581 -0.00600
C 	C 	0.98137 0.57695 0.44564 -0.02100
C 	C 	0.44955 0.40925 0.05568 -0.02100
C 	C 	0.01448 0.42537 0.89415 0.20300
C 	C 	0.40978 0.98915 0.60559 0.21300
C 	C 	0.56779 0.58801 0.89124 0.20900
C 	C 	0.01423 0.42248 0.60667 0.20700
C 	C 	0.41053 0.98594 0.89360 0.21400
C 	C 	0.56944 0.59311 0.61023 0.21000
C 	C 	0.39176 0.98810 0.39526 0.21500
C 	C 	0.44265 0.90143 0.17839 0.41600
C 	C 	0.02035 0.40789 0.10357 0.20600
C 	C 	0.56266 0.64357 0.40418 0.20200
C 	C 	0.38752 0.98249 0.10402 0.19500
C 	C 	0.01858 0.40731 0.39651 0.20700
C 	C 	0.55619 0.64291 0.09567 0.20400
C 	C 	0.02757 0.42680 0.94647 -0.08200
C 	C 	0.40011 0.99150 0.55314 -0.06900
C 	C 	0.58115 0.60461 0.94322 -0.08300
C 	C 	0.01461 0.41243 0.55421 -0.07700
C 	C 	0.39833 0.97825 0.94619 -0.07900
C 	C 	0.09938 0.54168 0.32176 0.41700
C 	C 	0.58041 0.60838 0.55806 -0.08200
C 	C 	0.38971 0.98698 0.44774 -0.07600
C 	C 	0.02454 0.41133 0.05135 -0.08100
C 	C 	0.58378 0.62864 0.45399 -0.08500
C 	C 	0.38724 0.98244 0.05155 -0.06300
C 	C 	0.02178 0.40827 0.44891 -0.08100
C 	C 	0.58221 0.62783 0.04671 -0.08800
C 	C 	0.06200 0.34210 0.02234 0.04500
C 	C 	0.28555 0.96542 0.47591 0.04900
C 	C 	0.66631 0.72708 0.01786 0.05000
Cr	Cr	0.48763 0.24118 0.75000 1.54600
Cr	Cr	0.75355 0.51237 0.75000 1.54600
Cr	Cr	0.75882 0.24645 0.75000 1.54600
Cr	Cr	0.24118 0.48763 0.25000 1.54600
Cr	Cr	0.51237 0.75355 0.25000 1.54500
Cr	Cr	0.24645 0.75882 0.25000 1.54600
H 	H 	0.00120 0.66140 0.12704 0.02300
H 	H 	0.72018 0.12543 0.88489 0.03400
H 	H 	0.88791 0.60400 0.61658 0.03300
H 	H 	0.43167 0.27836 0.88704 0.03400
H 	H 	0.89689 0.69106 0.05468 0.03000
H 	H 	0.79162 0.08956 0.44697 0.03200
H 	H 	0.34999 0.21421 0.05783 0.03500
H 	H 	0.92219 0.70792 0.44770 0.02900
H 	H 	0.79391 0.10339 0.05436 0.03400
H 	H 	0.32281 0.21782 0.44539 0.03600
H 	H 	0.80721 0.11804 0.53676 0.03300
H 	H 	0.65855 0.99267 0.37405 0.02800
H 	H 	0.85170 0.66607 0.96555 0.03700
H 	H 	0.32970 0.19746 0.53523 0.03400
H 	H 	0.81247 0.13620 0.96465 0.03600
H 	H 	0.89089 0.69598 0.53770 0.03400
H 	H 	0.36534 0.18966 0.96835 0.03800
H 	H 	0.95122 0.29336 0.15720 0.14900
H 	H 	0.35551 0.05938 0.33917 0.15100
H 	H 	0.66037 0.78876 0.13108 0.14400
H 	H 	0.94468 0.29666 0.34152 0.15100
H 	H 	0.34150 0.04929 0.15833 0.14000
H 	H 	0.37532 0.34571 0.12895 0.02100
H 	H 	0.67568 0.78074 0.36640 0.14400
H 	H 	0.32829 0.90754 0.66673 0.15700
H 	H 	0.08429 0.40709 0.83333 0.15100
H 	H 	0.56909 0.66702 0.67339 0.15300
H 	H 	0.32681 0.91188 0.83221 0.15500
H 	H 	0.09329 0.42054 0.66832 0.15400
H 	H 	0.55669 0.65703 0.82834 0.15200
H 	H 	0.16460 0.29384 0.07263 0.08000
H 	H 	0.00603 0.17753 0.06452 0.07300
H 	H 	0.11127 0.19806 0.01866 0.05700
H 	H 	0.01405 0.66878 0.37497 0.02300
H 	H 	0.14815 0.86000 0.42100 0.08100
H 	H 	0.08672 0.88673 0.47450 0.05900
H 	H 	0.16867 0.00988 0.43284 0.06400
H 	H 	0.79954 0.80044 0.07770 0.06100
H 	H 	0.86019 0.85804 0.01886 0.05600
H 	H 	0.76499 0.90750 0.04907 0.07300
H 	H 	0.15716 0.30476 0.42155 0.08400
H 	H 	0.14141 0.22352 0.47603 0.06100
H 	H 	0.01320 0.16865 0.43524 0.07000
H 	H 	0.12269 0.86384 0.06944 0.07500
H 	H 	0.66064 0.00127 0.12678 0.02600
H 	H 	0.19135 0.02770 0.06834 0.06400
H 	H 	0.10327 0.94619 0.01897 0.05400
H 	H 	0.80673 0.79225 0.42369 0.06100
H 	H 	0.77654 0.90446 0.45013 0.07200
H 	H 	0.86721 0.85270 0.48222 0.05500
H 	H 	0.22089 0.02700 0.59105 0.06700
H 	H 	0.13849 0.00388 0.53736 0.04200
H 	H 	0.12215 0.87186 0.57002 0.07100
H 	H 	0.12327 0.24955 0.92619 0.07400
H 	H 	0.22499 0.41222 0.91660 0.08300
H 	H 	0.36277 0.34851 0.37303 0.02300
H 	H 	0.23993 0.34540 0.97019 0.07000
H 	H 	0.67885 0.86025 0.58658 0.08700
H 	H 	0.79959 0.82193 0.59042 0.07600
H 	H 	0.79608 0.91707 0.54273 0.06200
H 	H 	0.16666 0.79531 0.91935 0.08500
H 	H 	0.08780 0.81663 0.96683 0.06700
H 	H 	0.14944 0.93022 0.91956 0.07900
H 	H 	0.97997 0.19592 0.59027 0.07500
H 	H 	0.01499 0.14439 0.53679 0.05100
H 	H 	0.13907 0.26124 0.57264 0.07500
H 	H 	0.71798 0.11708 0.61581 0.03000
H 	H 	0.66377 0.85470 0.91423 0.08800
H 	H 	0.78281 0.91730 0.95744 0.06400
H 	H 	0.78979 0.82429 0.90952 0.07600
H 	H 	0.86635 0.58754 0.88548 0.03400
H 	H 	0.40618 0.28334 0.61547 0.03000
O 	O 	0.46087 0.12093 0.80524 -0.48500
O 	O 	0.12093 0.46087 0.19476 -0.48200
O 	O 	0.53913 0.66006 0.30524 -0.48900
O 	O 	0.33994 0.87907 0.19476 -0.47800
O 	O 	0.49891 0.35047 0.80187 -0.53700
O 	O 	0.85156 0.50109 0.69813 -0.53000
O 	O 	0.64953 0.14844 0.80187 -0.53300
O 	O 	0.49891 0.35047 0.69813 -0.53400
O 	O 	0.85156 0.50109 0.80187 -0.53200
O 	O 	0.64953 0.14844 0.69813 -0.53300
O 	O 	0.35047 0.49891 0.30187 -0.52700
O 	O 	0.66006 0.53913 0.69476 -0.48500
O 	O 	0.50109 0.85156 0.19813 -0.51600
O 	O 	0.14844 0.64953 0.30187 -0.52200
O 	O 	0.35047 0.49891 0.19813 -0.52700
O 	O 	0.50109 0.85156 0.30187 -0.52000
O 	O 	0.14844 0.64953 0.19813 -0.52100
O 	O 	0.66667 0.33333 0.75000 -0.73900
O 	O 	0.33333 0.66667 0.25000 -0.73600
O 	O 	0.00387 0.30573 0.12804 -0.30300
O 	O 	0.31346 0.01419 0.36963 -0.31400
O 	O 	0.58564 0.75780 0.11074 -0.28600
O 	O 	0.87907 0.33994 0.80524 -0.48300
O 	O 	0.99257 0.30233 0.37151 -0.30700
O 	O 	0.30067 0.99539 0.12954 -0.29000
O 	O 	0.60402 0.75994 0.38755 -0.28800
O 	O 	0.30610 0.92710 0.63415 -0.30300
O 	O 	0.05397 0.36260 0.86505 -0.30300
O 	O 	0.61343 0.69237 0.64140 -0.30500
O 	O 	0.30927 0.94133 0.86350 -0.30500
O 	O 	0.07403 0.37911 0.63566 -0.30500
O 	O 	0.60191 0.68581 0.86004 -0.30600
O 	O 	0.46087 0.12093 0.69476 -0.48900
O 	O 	0.66006 0.53913 0.80524 -0.48700
O 	O 	0.87907 0.33994 0.69476 -0.48500
O 	O 	0.12093 0.46087 0.30524 -0.48300
O 	O 	0.53913 0.66006 0.19476 -0.49100
O 	O 	0.33994 0.87907 0.30524 -0.48200
