data_crystal

_cell_length_a 8.17587
_cell_length_b 14.92539
_cell_length_c 15.06238
_cell_angle_alpha 97.43130
_cell_angle_beta  99.34426
_cell_angle_gamma 97.82169

_symmetry_space_group_name_	'P 1'
_symmetry_space_group_name_H-M	'P 1'

loop_
_symmetry_equiv_pos_as_xyz
  x,y,z

loop_
_atom_site_label
_atom_site_type_symbol
_atom_site_fract_x
_atom_site_fract_y
_atom_site_fract_z
_atom_site_charge
Ba	Ba	0.15473 0.54377 0.45818 1.88100
Ba	Ba	0.65543 0.45622 0.54175 1.97000
C 	C 	0.34364 0.76421 0.12356 -0.19300
C 	C 	0.10596 0.07877 0.55464 -0.02900
C 	C 	0.96382 0.89072 0.53821 0.10100
C 	C 	0.91886 0.79097 0.27093 0.12500
C 	C 	0.12490 0.92508 0.58937 -0.10000
C 	C 	0.19575 0.01649 0.59571 -0.01500
C 	C 	0.89372 0.79626 0.52689 -0.07000
C 	C 	0.73018 0.76735 0.47861 0.02200
C 	C 	0.91652 0.20386 0.47452 -0.02900
C 	C 	0.84732 0.10930 0.46318 0.01200
C 	C 	0.94076 0.04725 0.50533 0.03500
C 	C 	0.37740 0.73774 0.21820 0.09500
C 	C 	0.68738 0.07462 0.41114 -0.03000
C 	C 	0.61551 0.98357 0.40584 -0.05300
C 	C 	0.70410 0.92162 0.44826 0.05400
C 	C 	0.94741 0.88669 0.24597 -0.15800
C 	C 	0.86982 0.95301 0.49691 -0.05300
C 	C 	0.63290 0.82882 0.44230 -0.08800
C 	C 	0.07803 0.23338 0.52568 -0.04000
C 	C 	0.23111 0.46779 0.76622 0.00700
C 	C 	0.13030 0.43634 0.82547 -0.08400
C 	C 	0.19325 0.45007 0.91940 -0.02500
C 	C 	0.59009 0.73675 0.67851 0.12000
C 	C 	0.35859 0.49751 0.95561 -0.00000
C 	C 	0.45206 0.53400 0.89334 -0.02300
C 	C 	0.38870 0.51938 0.80022 -0.05500
C 	C 	0.59902 0.55658 0.09044 -0.02700
C 	C 	0.71706 0.34324 0.26420 0.12800
C 	C 	0.66776 0.56842 0.18286 -0.06100
C 	C 	0.41151 0.48803 0.21320 -0.06000
C 	C 	0.34117 0.47575 0.12019 -0.02100
C 	C 	0.43208 0.51132 0.05641 -0.00500
C 	C 	0.57191 0.53754 0.24450 0.00800
C 	C 	0.62793 0.84046 0.70391 -0.20400
C 	C 	0.64882 0.31533 0.16262 -0.21000
C 	C 	0.08307 0.65885 0.73770 0.08300
C 	C 	0.12529 0.68596 0.84074 -0.19400
C 	C 	0.18550 0.25670 0.31031 0.22500
C 	C 	0.05030 0.18465 0.24749 -0.33000
C 	C 	0.89472 0.20981 0.72862 0.14100
C 	C 	0.87327 0.11371 0.75318 -0.21000
C 	C 	0.37433 0.21557 0.77723 0.04400
C 	C 	0.46285 0.21445 0.87471 -0.05000
C 	C 	0.17576 0.17198 0.56235 -0.05500
H 	H 	0.29342 0.67265 0.21803 0.03100
H 	H 	0.12440 0.29996 0.35632 -0.05000
H 	H 	0.21096 0.77452 0.10597 0.08000
H 	H 	0.96851 0.21837 0.20074 0.13700
H 	H 	0.97246 0.14548 0.28784 0.12300
H 	H 	0.10913 0.13594 0.20551 0.09200
H 	H 	0.51021 0.72729 0.23308 0.01300
H 	H 	0.36723 0.70903 0.07256 0.07100
H 	H 	0.70466 0.71191 0.66149 -0.00100
H 	H 	0.48756 0.71956 0.61796 -0.01000
H 	H 	0.73372 0.86023 0.76270 0.08800
H 	H 	0.52746 0.26822 0.15169 0.09000
H 	H 	0.66297 0.87207 0.64553 0.07900
H 	H 	0.51527 0.86690 0.72227 0.08500
H 	H 	0.42785 0.82852 0.12119 0.07400
H 	H 	0.92874 0.93763 0.30250 0.07400
H 	H 	0.80509 0.20955 0.66469 0.02800
H 	H 	0.02496 0.22804 0.71714 -0.02200
H 	H 	0.74306 0.09336 0.76400 0.08900
H 	H 	0.89793 0.06422 0.69726 0.08300
H 	H 	0.96271 0.11135 0.81639 0.08700
H 	H 	0.26099 0.16191 0.76060 0.01400
H 	H 	0.62903 0.37623 0.13012 0.08500
H 	H 	0.33796 0.28440 0.77327 0.02900
H 	H 	0.57095 0.27138 0.89408 0.06700
H 	H 	0.00811 0.78971 0.33452 0.00300
H 	H 	0.51236 0.14897 0.87834 0.05000
H 	H 	0.19963 0.88213 0.62513 0.07800
H 	H 	0.32132 0.03770 0.63465 0.04300
H 	H 	0.49005 0.96254 0.36684 0.05900
H 	H 	0.61438 0.11726 0.37417 0.05800
H 	H 	0.67525 0.69616 0.47244 -0.01100
H 	H 	0.13226 0.30474 0.53256 -0.00200
H 	H 	0.73913 0.28045 0.12900 0.08600
H 	H 	0.68211 0.58103 0.04730 0.04900
H 	H 	0.10992 0.42417 0.96196 0.03600
H 	H 	0.21791 0.43550 0.09949 0.04800
H 	H 	0.78841 0.77667 0.28329 0.00700
H 	H 	0.57268 0.57667 0.91450 0.05200
H 	H 	0.62686 0.54578 0.31600 -0.01000
H 	H 	0.18231 0.45778 0.69382 -0.01400
H 	H 	0.07749 0.90350 0.23354 0.05800
H 	H 	0.85710 0.89077 0.18360 0.07200
H 	H 	0.62140 0.37290 0.29716 -0.01900
H 	H 	0.19018 0.63314 0.71295 -0.00900
H 	H 	0.83171 0.39503 0.27372 -0.00100
H 	H 	0.23797 0.15993 0.39194 0.08400
H 	H 	0.37213 0.17809 0.32121 0.10000
H 	H 	0.24904 0.16965 0.92188 0.06900
H 	H 	0.29987 0.28457 0.93466 0.08100
H 	H 	0.97175 0.60430 0.72040 0.01900
H 	H 	0.24411 0.73558 0.86029 0.08100
H 	H 	0.14006 0.62511 0.87426 0.07200
H 	H 	0.02244 0.71780 0.86530 0.07400
N 	N 	0.30405 0.21134 0.36467 -0.20700
N 	N 	0.34921 0.22407 0.93961 -0.17300
O 	O 	0.17408 0.72306 0.55393 -0.34200
O 	O 	0.78567 0.43594 0.81828 -0.19900
O 	O 	0.86138 0.27137 0.79970 -0.22000
O 	O 	0.90157 0.60958 0.55084 -0.49000
O 	O 	0.40822 0.45213 0.39017 -0.52100
O 	O 	0.67549 0.54714 0.72182 -0.32400
O 	O 	0.54215 0.69856 0.75261 -0.23300
O 	O 	0.51199 0.17531 0.54721 -0.20600
O 	O 	0.48441 0.19592 0.71761 -0.21000
O 	O 	0.37035 0.66508 0.38827 -0.35300
O 	O 	0.29252 0.82535 0.44933 -0.21200
O 	O 	0.27178 0.30684 0.25479 -0.26600
O 	O 	0.05125 0.73631 0.69922 -0.24400
O 	O 	0.34496 0.80741 0.28198 -0.22700
O 	O 	0.13479 0.45280 0.27815 -0.35600
O 	O 	0.93765 0.61862 0.34086 -0.34100
O 	O 	0.00429 0.55807 0.17888 -0.23500
O 	O 	0.94626 0.72725 0.19970 -0.21300
O 	O 	0.63620 0.27689 0.44604 -0.34000
O 	O 	0.90872 0.39041 0.44908 -0.49800
O 	O 	0.43993 0.33491 0.61165 -0.35000
O 	O 	0.75422 0.26542 0.30072 -0.24600
O 	O 	0.40206 0.54786 0.60975 -0.49600
O 	O 	0.87263 0.38137 0.65906 -0.35200
P 	P 	0.00420 0.70923 0.58035 0.30700
P 	P 	0.30500 0.42557 0.29090 0.36200
P 	P 	0.88925 0.61686 0.22391 0.33900
P 	P 	0.80608 0.29076 0.41957 0.34400
P 	P 	0.91240 0.38286 0.77701 0.33700
P 	P 	0.41089 0.78308 0.39162 0.31600
P 	P 	0.50091 0.57917 0.72355 0.31000
P 	P 	0.40018 0.21713 0.60942 0.31100
