data_crystal

_cell_length_a 10.99336
_cell_length_b 10.98250
_cell_length_c 18.76661
_cell_angle_alpha 89.96050
_cell_angle_beta  89.38265
_cell_angle_gamma 59.86535

_symmetry_space_group_name_	'P 1'
_symmetry_space_group_name_H-M	'P 1'

loop_
_symmetry_equiv_pos_as_xyz
  x,y,z

loop_
_atom_site_label
_atom_site_type_symbol
_atom_site_fract_x
_atom_site_fract_y
_atom_site_fract_z
_atom_site_charge
C 	C 	0.23183 0.64719 0.60672 0.47800
C 	C 	0.69527 0.53082 0.80135 -0.11600
C 	C 	0.69719 0.67025 0.81432 -0.04500
C 	C 	0.66702 0.64467 0.67836 -0.23200
C 	C 	0.80387 0.64841 0.69000 0.33300
C 	C 	0.67244 0.51923 0.72116 0.31100
C 	C 	0.67772 0.14213 0.66641 -0.17400
C 	C 	0.69937 0.14366 0.82274 -0.18300
C 	C 	0.80930 0.07868 0.77711 0.02500
C 	C 	0.79366 0.11765 0.70105 0.06500
C 	C 	0.17927 0.65748 0.67853 -0.20600
C 	C 	0.65192 0.62046 0.60256 0.49100
C 	C 	0.17659 0.67905 0.83541 0.18900
C 	C 	0.23039 0.55554 0.80012 -0.07200
C 	C 	0.26389 0.55574 0.72399 0.11200
C 	C 	0.61939 0.60383 0.31039 -0.17700
C 	C 	0.63451 0.66387 0.15902 -0.22600
C 	C 	0.69737 0.53392 0.18633 0.02500
C 	C 	0.71389 0.50576 0.26388 0.04300
C 	C 	0.64035 0.18862 0.32186 0.23800
C 	C 	0.62959 0.20157 0.16407 -0.26800
C 	C 	0.52730 0.21590 0.20893 0.20400
C 	C 	0.62892 0.22499 0.60087 0.45300
C 	C 	0.53166 0.26578 0.27898 -0.18700
C 	C 	0.25012 0.62864 0.32000 -0.15100
C 	C 	0.19236 0.64474 0.16966 -0.20600
C 	C 	0.24257 0.71994 0.20106 0.04500
C 	C 	0.27655 0.70743 0.27590 0.00600
C 	C 	0.70684 0.09444 0.89555 0.43100
C 	C 	0.72275 0.68689 0.88927 0.40300
C 	C 	0.11814 0.70716 0.90726 0.31800
C 	C 	0.67258 0.11120 0.10236 0.48200
C 	C 	0.69154 0.68794 0.09399 0.46400
C 	C 	0.28800 0.62022 0.39312 0.34000
C 	C 	0.10128 0.70497 0.10957 0.44500
C 	C 	0.61591 0.58565 0.38762 0.33900
C 	C 	0.61786 0.22875 0.39537 0.31900
C 	C 	0.55333 0.79779 0.78848 -0.05200
C 	C 	0.54020 0.78461 0.70700 0.00600
C 	C 	0.81572 0.67457 0.76928 -0.15400
Cr	Cr	0.39301 0.39805 0.50148 1.54000
Cr	Cr	0.39882 0.70798 0.50163 1.52800
Cr	Cr	0.70814 0.39394 0.49685 1.53300
Cr	Cr	0.93795 0.93845 0.00894 1.44500
Cr	Cr	0.62618 0.93703 0.99475 1.51200
Cr	Cr	0.93779 0.62576 0.00141 1.48500
H 	H 	0.55614 0.89678 0.79751 0.01800
H 	H 	0.92272 0.59825 0.78779 0.04300
H 	H 	0.89656 0.54661 0.67328 -0.01900
H 	H 	0.91204 0.00091 0.79623 0.07300
H 	H 	0.87347 0.13342 0.67524 0.05700
H 	H 	0.59820 0.22462 0.80380 0.08800
H 	H 	0.60634 0.11338 0.69166 0.11800
H 	H 	0.36483 0.47110 0.70486 0.01600
H 	H 	0.07795 0.74610 0.69412 0.16000
H 	H 	0.76021 0.44735 0.15015 0.02100
H 	H 	0.56489 0.75728 0.18958 0.07200
H 	H 	0.53352 0.70073 0.29110 0.07100
H 	H 	0.43565 0.35501 0.29924 0.08200
H 	H 	0.69682 0.24286 0.17922 0.12200
H 	H 	0.23934 0.80956 0.17456 0.01400
H 	H 	0.43940 0.78918 0.69417 0.03400
H 	H 	0.31122 0.77682 0.29670 0.02000
H 	H 	0.20361 0.54846 0.19166 0.09700
H 	H 	0.20691 0.56420 0.30280 0.09400
H 	H 	0.53755 0.87579 0.67955 0.02700
H 	H 	0.80659 0.77968 0.77587 0.06000
H 	H 	0.60001 0.54261 0.82905 0.05300
H 	H 	0.57050 0.52197 0.71448 -0.01700
O 	O 	0.50711 0.25628 0.58030 -0.47200
O 	O 	0.52464 0.69537 0.42510 -0.51200
O 	O 	0.73589 0.50439 0.41598 -0.46500
O 	O 	0.69056 0.27782 0.42235 -0.49000
O 	O 	0.49999 0.49999 0.49998 -0.75800
O 	O 	0.08919 0.82587 0.93232 -0.41500
O 	O 	0.81907 0.05396 0.93144 -0.48400
O 	O 	0.60707 0.07644 0.91646 -0.44700
O 	O 	0.64711 0.80655 0.91769 -0.54700
O 	O 	0.83708 0.59386 0.91530 -0.50500
O 	O 	0.06477 0.63608 0.93255 -0.45300
O 	O 	0.28083 0.52719 0.57794 -0.52200
O 	O 	0.06825 0.82920 0.09294 -0.47500
O 	O 	0.79965 0.05704 0.08033 -0.51100
O 	O 	0.58613 0.07976 0.07708 -0.47300
O 	O 	0.62770 0.80963 0.06658 -0.59500
O 	O 	0.81614 0.59718 0.07592 -0.53900
O 	O 	0.04536 0.63917 0.08144 -0.48200
O 	O 	0.83398 0.83375 0.00170 -0.82800
O 	O 	0.26136 0.73899 0.58427 -0.49300
O 	O 	0.53259 0.69478 0.57437 -0.54300
O 	O 	0.74447 0.50375 0.57700 -0.46200
O 	O 	0.69852 0.27723 0.57162 -0.50600
O 	O 	0.49853 0.25692 0.41928 -0.44500
O 	O 	0.27288 0.52778 0.42868 -0.47900
O 	O 	0.25278 0.73963 0.42325 -0.44100
F 	F 	0.77561 0.39083 0.69423 -0.46600
C 	C 	0.28002 0.41567 0.83775 -0.01200
C 	C 	0.31118 0.29377 0.78723 -0.17300
H 	H 	0.21633 0.31726 0.75653 0.08700
H 	H 	0.39724 0.27162 0.74927 0.07600
H 	H 	0.34502 0.19746 0.81876 0.07200
H 	H 	0.37581 0.38930 0.86856 0.03100
H 	H 	0.19959 0.42197 0.87563 0.03400
F 	F 	0.15671 0.79574 0.80006 -0.45000
C 	C 	0.42378 0.81033 0.82960 0.04100
C 	C 	0.30238 0.96181 0.83403 -0.45600
H 	H 	0.33180 0.02300 0.86968 0.18000
H 	H 	0.27582 0.01013 0.78029 0.21400
H 	H 	0.20816 0.96517 0.85801 0.13000
H 	H 	0.38933 0.74276 0.80352 0.05000
H 	H 	0.44991 0.77110 0.88501 0.01600
C 	C 	0.84404 0.37129 0.28965 -0.03700
C 	C 	0.94870 0.27356 0.23300 -0.27700
H 	H 	0.90033 0.23177 0.19631 0.08400
H 	H 	0.99363 0.32876 0.20243 0.04800
H 	H 	0.03527 0.18146 0.26003 0.17300
H 	H 	0.90597 0.40167 0.32420 0.02700
H 	H 	0.81017 0.30829 0.32086 0.05400
C 	C 	0.42504 0.16300 0.19480 -0.12400
C 	C 	0.32123 0.18845 0.25568 -0.12200
H 	H 	0.37778 0.13912 0.30567 0.08500
H 	H 	0.24904 0.30303 0.26425 0.06500
H 	H 	0.25853 0.13880 0.24146 0.07600
H 	H 	0.36265 0.21595 0.14670 0.06600
H 	H 	0.48581 0.04733 0.18557 0.10300
F 	F 	0.76184 0.07407 0.29896 -0.42000
F 	F 	0.80455 0.75364 0.64935 -0.50000
C 	C 	0.81357 0.39195 0.83472 0.10100
C 	C 	0.96609 0.34082 0.81252 -0.44800
H 	H 	0.03021 0.22601 0.82241 0.19800
H 	H 	0.97695 0.35855 0.75541 0.13400
H 	H 	0.01124 0.39153 0.84523 0.19500
H 	H 	0.80446 0.39587 0.89376 -0.00200
H 	H 	0.79182 0.30895 0.81948 0.02600
