data_crystal

_cell_length_a 7.23805
_cell_length_b 14.82331
_cell_length_c 22.59718
_cell_angle_alpha 90.00002
_cell_angle_beta  90.00167
_cell_angle_gamma 88.67868

_symmetry_space_group_name_	'P 1'
_symmetry_space_group_name_H-M	'P 1'

loop_
_symmetry_equiv_pos_as_xyz
  x,y,z

loop_
_atom_site_label
_atom_site_type_symbol
_atom_site_fract_x
_atom_site_fract_y
_atom_site_fract_z
_atom_site_charge
O 	O 	0.39081 0.84481 0.44734 -0.44300
O 	O 	0.10919 0.15519 0.94734 -0.46200
O 	O 	0.89081 0.65519 0.55266 -0.39900
O 	O 	0.60919 0.34481 0.05266 -0.41900
O 	O 	0.72055 0.65582 0.44042 -0.42500
O 	O 	0.77945 0.34418 0.94042 -0.43100
O 	O 	0.22055 0.84418 0.55958 -0.45100
O 	O 	0.27945 0.15582 0.05958 -0.45800
C 	C 	0.55393 0.62628 0.42643 0.43000
C 	C 	0.94607 0.37372 0.92643 0.44200
C 	C 	0.05044 0.87352 0.57359 0.41300
C 	C 	0.44956 0.12648 0.07359 0.43100
O 	O 	0.72053 0.84413 0.44042 -0.42800
O 	O 	0.77947 0.15587 0.94042 -0.43600
O 	O 	0.22053 0.65587 0.55958 -0.43700
O 	O 	0.27947 0.34413 0.05958 -0.44800
O 	O 	0.89083 0.84481 0.55266 -0.40900
O 	O 	0.60917 0.15519 0.05266 -0.42600
O 	O 	0.39083 0.65519 0.44734 -0.44900
O 	O 	0.10917 0.34481 0.94734 -0.46500
C 	C 	0.55039 0.87301 0.42601 0.43600
C 	C 	0.94961 0.12699 0.92601 0.45800
C 	C 	0.05376 0.62737 0.57438 0.40200
C 	C 	0.44625 0.37263 0.07437 0.43100
O 	O 	0.55731 0.74998 0.53682 -0.56700
O 	O 	0.94269 0.25002 0.03682 -0.55000
O 	O 	0.05731 0.75002 0.46318 -0.58800
O 	O 	0.44269 0.24998 0.96318 -0.57400
V 	V 	0.83216 0.74998 0.49317 1.81300
V 	V 	0.66784 0.25002 0.99317 1.80900
V 	V 	0.33216 0.75002 0.50683 1.80600
V 	V 	0.16784 0.24998 0.00683 1.80200
C 	C 	0.84786 0.60148 0.85881 -0.12600
C 	C 	0.65198 0.39849 0.35883 -0.14500
C 	C 	0.55051 0.89469 0.13432 -0.14400
C 	C 	0.94958 0.10531 0.63432 -0.16400
C 	C 	0.94556 0.44901 0.88366 -0.13500
C 	C 	0.55442 0.55099 0.38366 -0.17800
C 	C 	0.46634 0.05095 0.11585 -0.18300
C 	C 	0.03367 0.94905 0.61585 -0.21200
C 	C 	0.12925 0.46982 0.59971 0.40700
C 	C 	0.37082 0.53019 0.09970 0.40900
C 	C 	0.49074 0.03374 0.40591 0.40800
C 	C 	0.00916 0.96625 0.90591 0.38900
C 	C 	0.15506 0.39941 0.63953 -0.16700
C 	C 	0.34503 0.60061 0.13951 -0.16100
C 	C 	0.45192 0.10588 0.36841 -0.16100
C 	C 	0.04793 0.89411 0.86841 -0.15600
C 	C 	0.10946 0.41040 0.69888 0.07600
C 	C 	0.39062 0.58963 0.19887 0.06300
C 	C 	0.45212 0.09418 0.30735 0.06300
C 	C 	0.04776 0.90581 0.80735 0.05500
C 	C 	0.03115 0.49239 0.72028 -0.04200
C 	C 	0.46888 0.50762 0.22027 -0.00400
C 	C 	0.49645 0.00947 0.28152 -0.01300
C 	C 	0.00351 0.99053 0.78152 -0.01100
C 	C 	0.00205 0.56506 0.67900 0.02000
C 	C 	0.49795 0.43494 0.17900 0.03700
C 	C 	0.54036 0.93521 0.32023 0.04200
C 	C 	0.95964 0.06479 0.82023 0.05000
C 	C 	0.98157 0.50433 0.78136 0.06400
C 	C 	0.51843 0.49568 0.28136 -0.00600
C 	C 	0.49791 0.99632 0.21857 0.00100
C 	C 	0.00208 0.00368 0.71857 -0.04700
C 	C 	0.90190 0.58828 0.79964 0.00800
C 	C 	0.59801 0.41171 0.29965 0.02900
C 	C 	0.54581 0.90956 0.19575 0.02800
C 	C 	0.95424 0.09044 0.69575 0.06900
C 	C 	0.87405 0.65817 0.75876 0.21900
C 	C 	0.62583 0.34181 0.25877 0.21200
C 	C 	0.59174 0.83850 0.23419 0.21500
C 	C 	0.90835 0.16151 0.73419 0.20500
C 	C 	0.92409 0.64738 0.69974 0.23800
C 	C 	0.57585 0.35261 0.19974 0.21600
C 	C 	0.58826 0.85059 0.29519 0.21400
C 	C 	0.91182 0.14942 0.79519 0.22100
C 	C 	0.00468 0.43546 0.82499 -0.00300
C 	C 	0.49537 0.56456 0.32498 0.07100
C 	C 	0.45676 0.06646 0.17715 0.06600
C 	C 	0.04320 0.93354 0.67715 0.09000
C 	C 	0.86730 0.53234 0.90014 0.39600
C 	C 	0.63256 0.46764 0.40016 0.41300
C 	C 	0.51283 0.96476 0.09482 0.41800
C 	C 	0.98723 0.03524 0.59482 0.44900
C 	C 	0.05444 0.55314 0.61836 -0.14900
C 	C 	0.44558 0.44686 0.11836 -0.15400
C 	C 	0.53382 0.94803 0.38292 -0.15500
C 	C 	0.96616 0.05198 0.88292 -0.14100
H 	H 	0.06230 0.36974 0.81466 0.08400
H 	H 	0.43785 0.63030 0.31464 0.07100
H 	H 	0.42193 0.13432 0.19078 0.07100
H 	H 	0.07800 0.86567 0.69078 0.06300
F 	F 	0.80773 0.54648 0.95645 -0.40300
F 	F 	0.69205 0.45348 0.45647 -0.40600
F 	F 	0.52509 0.94883 0.03576 -0.40600
F 	F 	0.97502 0.05118 0.53576 -0.40700
F 	F 	0.79441 0.73790 0.77586 -0.38700
F 	F 	0.70539 0.26207 0.27588 -0.38800
F 	F 	0.64436 0.75639 0.21248 -0.38800
F 	F 	0.85578 0.24363 0.71248 -0.38500
H 	H 	0.78687 0.66524 0.87317 0.15900
H 	H 	0.71287 0.33471 0.37319 0.16300
H 	H 	0.58672 0.82876 0.11650 0.16600
H 	H 	0.91341 0.17125 0.61650 0.17200
F 	F 	0.18062 0.45708 0.54243 -0.41400
F 	F 	0.31947 0.54294 0.04241 -0.41300
F 	F 	0.48298 0.04724 0.46533 -0.41100
F 	F 	0.01691 0.95275 0.96533 -0.41200
H 	H 	0.13799 0.35302 0.72686 0.06000
H 	H 	0.36211 0.64701 0.22684 0.06700
H 	H 	0.41628 0.15314 0.28166 0.06600
H 	H 	0.08354 0.84684 0.78167 0.06600
H 	H 	0.21398 0.33567 0.62441 0.14600
H 	H 	0.28615 0.66436 0.12439 0.14400
H 	H 	0.41806 0.17161 0.38689 0.14600
H 	H 	0.08173 0.82837 0.88689 0.14200
F 	F 	0.89181 0.71855 0.66321 -0.39000
F 	F 	0.60810 0.28143 0.16322 -0.39400
F 	F 	0.63697 0.77854 0.32921 -0.39700
F 	F 	0.86316 0.22148 0.82921 -0.39700
