data_crystal

_cell_length_a 10.79070
_cell_length_b 10.88880
_cell_length_c 9.57722
_cell_angle_alpha 90.69431
_cell_angle_beta  90.44718
_cell_angle_gamma 92.83019

_symmetry_space_group_name_	'P 1'
_symmetry_space_group_name_H-M	'P 1'

loop_
_symmetry_equiv_pos_as_xyz
  x,y,z

loop_
_atom_site_label
_atom_site_type_symbol
_atom_site_fract_x
_atom_site_fract_y
_atom_site_fract_z
_atom_site_charge
O 	O 	0.49999 0.31964 0.61881 -0.37800
O 	O 	0.50000 0.31966 0.38124 -0.35600
C 	C 	0.51071 0.26303 0.49906 0.32600
O 	O 	0.31768 0.49997 0.61879 -0.37700
O 	O 	0.31770 0.49999 0.38121 -0.37100
C 	C 	0.25992 0.50135 0.50035 0.29500
Cu	Cu	0.49999 0.49999 0.64066 0.91500
Cu	Cu	0.50001 0.50001 0.35934 0.91700
O 	O 	0.50000 0.68034 0.61876 -0.38200
O 	O 	0.50001 0.68036 0.38119 -0.37500
O 	O 	0.68230 0.50001 0.61879 -0.38200
O 	O 	0.68232 0.50003 0.38121 -0.37100
C 	C 	0.49306 0.73748 0.50174 0.31100
C 	C 	0.73931 0.49117 0.50149 0.29700
C 	C 	0.07301 0.46061 0.65342 0.00200
H 	H 	0.12053 0.37669 0.68552 0.03800
C 	C 	0.93189 0.42432 0.64126 0.02400
H 	H 	0.92487 0.32334 0.61931 0.03200
H 	H 	0.11937 0.70074 0.53643 0.04900
H 	H 	0.90890 0.67747 0.58803 0.05900
C 	C 	0.07308 0.62712 0.47033 -0.06200
C 	C 	0.06706 0.40629 0.39170 -0.06600
C 	C 	0.12173 0.49941 0.50427 -0.05000
H 	H 	0.10845 0.42458 0.28748 0.05600
H 	H 	0.08925 0.31116 0.42081 0.04900
C 	C 	0.87731 0.48897 0.50683 -0.05800
C 	C 	0.93105 0.62386 0.49309 -0.04700
C 	C 	0.92480 0.41554 0.37939 -0.04600
H 	H 	0.87924 0.32160 0.37420 0.05300
H 	H 	0.90203 0.46227 0.28028 0.05600
H 	H 	0.09406 0.65037 0.35985 0.05100
H 	H 	0.88700 0.66970 0.40344 0.05100
C 	C 	0.60102 0.12427 0.74162 -0.03900
H 	H 	0.65118 0.21191 0.73393 0.05800
C 	C 	0.59943 0.06720 0.87057 -0.01700
H 	H 	0.64592 0.11191 0.95876 0.05900
C 	C 	0.53524 0.95456 0.88561 -0.00400
H 	H 	0.52657 0.91340 0.98761 0.04800
C 	C 	0.48693 0.89206 0.76796 -0.04200
H 	H 	0.43433 0.80709 0.78619 0.06300
C 	C 	0.50446 0.94139 0.63277 0.04000
C 	C 	0.54303 0.06644 0.62384 0.05000
C 	C 	0.52449 0.12889 0.49723 -0.11200
C 	C 	0.50206 0.05978 0.37286 0.10600
H 	H 	0.47589 0.88156 0.28140 0.07100
C 	C 	0.48673 0.93285 0.37882 -0.03700
C 	C 	0.48819 0.87200 0.50654 -0.07000
H 	H 	0.36031 0.35952 0.12620 0.04100
C 	C 	0.66492 0.66421 0.14765 -0.06000
H 	H 	0.67360 0.67131 0.25779 0.06500
C 	C 	0.74464 0.74552 0.07756 -0.03400
H 	H 	0.80636 0.80774 0.13759 0.06300
C 	C 	0.74398 0.74819 0.93288 0.07800
C 	C 	0.66268 0.66638 0.85947 -0.10700
H 	H 	0.66953 0.67073 0.74954 0.08700
C 	C 	0.58026 0.58166 0.92707 0.05300
C 	C 	0.58076 0.58110 0.07656 0.06700
N 	N 	0.50120 0.50121 0.14791 -0.18400
C 	C 	0.42323 0.42274 0.07221 0.03800
H 	H 	0.36069 0.35922 0.86727 0.03800
C 	C 	0.42344 0.42260 0.92414 -0.00300
N 	N 	0.50125 0.50129 0.85204 -0.18400
C 	C 	0.10223 0.56080 0.76973 -0.16100
H 	H 	0.03450 0.63401 0.76893 0.06900
H 	H 	0.10028 0.51783 0.87436 0.06100
H 	H 	0.19414 0.60946 0.76099 0.08100
N 	N 	0.50297 0.11568 0.23826 -0.02000
O 	O 	0.41393 0.08870 0.14904 -0.11500
O 	O 	0.60166 0.17839 0.19762 -0.10600
N 	N 	0.82470 0.83480 0.86018 -0.02400
O 	O 	0.91195 0.89850 0.92714 -0.11800
O 	O 	0.80807 0.85508 0.72787 -0.11800
C 	C 	0.86596 0.43345 0.78362 -0.17100
H 	H 	0.85134 0.53005 0.81251 0.08200
H 	H 	0.77673 0.37907 0.78405 0.08100
H 	H 	0.92221 0.39200 0.86668 0.06700
