data_crystal

_cell_length_a 20.80750
_cell_length_b 7.13967
_cell_length_c 16.56728
_cell_angle_alpha 89.99994
_cell_angle_beta  93.34884
_cell_angle_gamma 89.99999

_symmetry_space_group_name_	'P 1'
_symmetry_space_group_name_H-M	'P 1'

loop_
_symmetry_equiv_pos_as_xyz
  x,y,z

loop_
_atom_site_label
_atom_site_type_symbol
_atom_site_fract_x
_atom_site_fract_y
_atom_site_fract_z
_atom_site_charge
O 	O 	0.56484 0.50529 0.57983 -0.48900
O 	O 	0.43516 0.00529 0.42017 -0.49100
O 	O 	0.55672 0.17993 0.40935 -0.49100
O 	O 	0.44328 0.67993 0.59065 -0.49100
C 	C 	0.57072 0.34435 0.38236 0.37700
C 	C 	0.42928 0.84435 0.61764 0.38000
O 	O 	0.57228 0.17581 0.57853 -0.49400
O 	O 	0.42772 0.67581 0.42147 -0.49400
O 	O 	0.45083 0.00192 0.59054 -0.48800
O 	O 	0.54917 0.50192 0.40946 -0.48600
C 	C 	0.58984 0.34423 0.60480 0.35900
C 	C 	0.41016 0.84423 0.39520 0.36100
O 	O 	0.46013 0.33803 0.50375 -0.62400
O 	O 	0.53987 0.83803 0.49625 -0.62300
V 	V 	0.50740 0.06456 0.49931 1.80100
V 	V 	0.49260 0.56456 0.50069 1.80100
C 	C 	0.13715 0.90685 0.17547 -0.09000
C 	C 	0.86285 0.40685 0.82453 -0.09000
C 	C 	0.35484 0.85318 0.33372 -0.12200
C 	C 	0.64516 0.35318 0.66628 -0.12200
C 	C 	0.31566 0.82973 0.19165 -0.03200
C 	C 	0.68434 0.32972 0.80835 -0.03200
C 	C 	0.36737 0.84964 0.25069 0.05600
C 	C 	0.63263 0.34963 0.74931 0.05600
C 	C 	0.29025 0.85966 0.35802 0.06200
C 	C 	0.70975 0.35966 0.64198 0.06200
C 	C 	0.23763 0.85294 0.29752 -0.04600
C 	C 	0.76237 0.35295 0.70248 -0.04700
C 	C 	0.25145 0.85459 0.21458 0.02000
C 	C 	0.74855 0.35459 0.78542 0.02000
C 	C 	0.20049 0.87998 0.15534 -0.01600
C 	C 	0.79951 0.37997 0.84466 -0.01600
C 	C 	0.12137 0.88616 0.25693 0.02100
C 	C 	0.87863 0.38617 0.74307 0.02100
C 	C 	0.17123 0.83833 0.31593 0.04400
C 	C 	0.82877 0.33834 0.68407 0.04300
H 	H 	0.20881 0.88206 0.09186 0.03600
H 	H 	0.79119 0.38205 0.90814 0.03600
C 	C 	0.38842 0.90437 0.83170 -0.06100
C 	C 	0.61158 0.40437 0.16830 -0.06000
H 	H 	0.47432 0.84598 0.77159 0.02100
H 	H 	0.52568 0.34598 0.22841 0.02000
H 	H 	0.41618 0.92316 0.88824 0.03500
H 	H 	0.58382 0.42316 0.11175 0.03400
C 	C 	0.39081 0.85183 0.68902 -0.10700
C 	C 	0.60919 0.35183 0.31098 -0.10600
C 	C 	0.07933 0.88534 0.73454 0.01700
C 	C 	0.92067 0.38533 0.26546 0.01700
C 	C 	0.11590 0.84449 0.66804 0.04900
C 	C 	0.88410 0.34449 0.33196 0.04900
C 	C 	0.18237 0.83311 0.67644 -0.07600
C 	C 	0.81763 0.33311 0.32356 -0.07600
C 	C 	0.21735 0.88450 0.74804 0.00800
C 	C 	0.78265 0.38450 0.25196 0.00800
C 	C 	0.18263 0.93581 0.81744 0.03000
C 	C 	0.81737 0.43581 0.18256 0.02700
C 	C 	0.28643 0.88571 0.75105 -0.01600
C 	C 	0.71357 0.38571 0.24895 -0.01500
C 	C 	0.32089 0.92802 0.82469 0.00200
C 	C 	0.67910 0.42802 0.17531 -0.00100
C 	C 	0.28879 0.00966 0.88777 0.03400
C 	C 	0.71121 0.50965 0.11223 0.03700
C 	C 	0.22043 0.01351 0.88581 -0.02600
C 	C 	0.77956 0.51350 0.11418 -0.02300
C 	C 	0.32327 0.85621 0.68206 0.00900
C 	C 	0.67673 0.35621 0.31794 0.00800
C 	C 	0.42251 0.86155 0.76482 0.02000
C 	C 	0.57749 0.36156 0.23518 0.01900
C 	C 	0.11230 0.91583 0.81199 -0.09500
C 	C 	0.88770 0.41583 0.18801 -0.09400
H 	H 	0.30159 0.84464 0.62186 0.02600
H 	H 	0.69841 0.34464 0.37814 0.02600
H 	H 	0.20536 0.78703 0.62345 0.04300
H 	H 	0.79464 0.28703 0.37655 0.04300
O 	O 	0.95079 0.25667 0.09052 -0.47600
O 	O 	0.04921 0.75667 0.90948 -0.47600
O 	O 	0.92772 0.59037 0.92147 -0.49300
O 	O 	0.07228 0.09037 0.07853 -0.49400
C 	C 	0.91307 0.42148 0.89187 0.34200
C 	C 	0.08693 0.92148 0.10813 0.34400
O 	O 	0.94327 0.58618 0.09064 -0.48700
O 	O 	0.05673 0.08618 0.90936 -0.49000
O 	O 	0.06485 0.75997 0.07984 -0.48800
O 	O 	0.93515 0.25997 0.92016 -0.48800
C 	C 	0.92744 0.41846 0.11604 0.34400
C 	C 	0.07256 0.91846 0.88396 0.34800
O 	O 	0.03985 0.42805 0.99624 -0.63500
O 	O 	0.96015 0.92805 0.00376 -0.63500
V 	V 	0.99261 0.70154 0.00070 1.79800
V 	V 	0.00739 0.20154 0.99930 1.79800
C 	C 	0.00668 0.91014 0.71264 -0.04400
C 	C 	0.95681 0.92304 0.77651 -0.15800
H 	H 	0.95631 0.79667 0.81384 0.07400
H 	H 	0.96446 0.04476 0.81587 0.07600
H 	H 	0.90815 0.93776 0.74584 0.06700
H 	H 	0.00127 0.03569 0.67360 0.03500
H 	H 	0.99024 0.79264 0.67341 0.04000
C 	C 	0.99332 0.41014 0.28736 -0.04800
C 	C 	0.04319 0.42303 0.22349 -0.15900
H 	H 	0.04369 0.29667 0.18616 0.07400
H 	H 	0.03554 0.54476 0.18413 0.07800
H 	H 	0.09185 0.43775 0.25416 0.06600
H 	H 	0.99873 0.53568 0.32640 0.03800
H 	H 	0.00976 0.29263 0.32659 0.04100
N 	N 	0.08490 0.81546 0.58928 -0.18900
H 	H 	0.10100 0.91925 0.55082 0.07200
H 	H 	0.09901 0.68515 0.56755 0.07200
N 	N 	0.91510 0.31546 0.41071 -0.18900
H 	H 	0.89900 0.41925 0.44918 0.07100
H 	H 	0.90099 0.18515 0.43245 0.07200
C 	C 	0.19233 0.13120 0.95147 -0.03600
C 	C 	0.17525 0.32753 0.92013 -0.15700
H 	H 	0.21878 0.39661 0.89814 0.06600
H 	H 	0.13792 0.32270 0.86955 0.08000
H 	H 	0.15795 0.41408 0.96999 0.07500
H 	H 	0.15369 0.05820 0.97986 0.04100
H 	H 	0.22629 0.15044 0.00490 0.04400
C 	C 	0.80767 0.63120 0.04853 -0.03700
C 	C 	0.82475 0.82753 0.07987 -0.15600
H 	H 	0.78122 0.89661 0.10186 0.06600
H 	H 	0.86208 0.82270 0.13044 0.08000
H 	H 	0.84205 0.91408 0.03001 0.07500
H 	H 	0.84631 0.55819 0.02014 0.04200
H 	H 	0.77371 0.65044 0.99510 0.04500
C 	C 	0.05071 0.90874 0.27713 -0.06400
C 	C 	0.03621 0.93477 0.36603 -0.13100
H 	H 	0.03911 0.80032 0.39942 0.05500
H 	H 	0.06900 0.04024 0.39560 0.04800
H 	H 	0.98589 0.98414 0.36951 0.05100
H 	H 	0.03108 0.03273 0.24504 0.04500
H 	H 	0.02115 0.79334 0.25183 0.04700
C 	C 	0.94929 0.40875 0.72287 -0.06500
C 	C 	0.96379 0.43477 0.63397 -0.13400
H 	H 	0.96089 0.30032 0.60058 0.05500
H 	H 	0.93100 0.54025 0.60440 0.05000
H 	H 	0.01412 0.48414 0.63049 0.05100
H 	H 	0.96892 0.53274 0.75496 0.04700
H 	H 	0.97885 0.29335 0.74817 0.04700
C 	C 	0.32820 0.76379 0.10612 -0.04200
C 	C 	0.30478 0.56276 0.09179 -0.15000
H 	H 	0.32998 0.46665 0.13587 0.06000
H 	H 	0.25209 0.55119 0.09779 0.06400
H 	H 	0.31534 0.51796 0.02974 0.05500
H 	H 	0.30452 0.85700 0.06064 0.03500
H 	H 	0.37950 0.76589 0.09259 0.02900
C 	C 	0.67180 0.26377 0.89388 -0.04100
C 	C 	0.69522 0.06273 0.90820 -0.15400
H 	H 	0.67002 0.96663 0.86412 0.06300
H 	H 	0.74791 0.05117 0.90220 0.06400
H 	H 	0.68466 0.01791 0.97025 0.05500
H 	H 	0.69548 0.35697 0.93936 0.03500
H 	H 	0.62050 0.26586 0.90741 0.02900
N 	N 	0.15337 0.73222 0.38454 -0.18600
H 	H 	0.18359 0.61611 0.39341 0.07800
H 	H 	0.15367 0.81694 0.43567 0.07300
N 	N 	0.84663 0.23223 0.61546 -0.18600
H 	H 	0.81641 0.11613 0.60658 0.07700
H 	H 	0.84633 0.31695 0.56433 0.07200
C 	C 	0.43543 0.88738 0.22537 -0.07300
C 	C 	0.47461 0.70819 0.22038 -0.13900
H 	H 	0.52280 0.74200 0.19883 0.05600
H 	H 	0.48108 0.64265 0.28087 0.07200
H 	H 	0.45060 0.60618 0.17810 0.05300
H 	H 	0.43468 0.96386 0.16699 0.03700
H 	H 	0.46114 0.98483 0.26834 0.05400
C 	C 	0.56457 0.38738 0.77463 -0.07400
C 	C 	0.52539 0.20819 0.77962 -0.13800
H 	H 	0.47720 0.24200 0.80116 0.05500
H 	H 	0.51892 0.14264 0.71913 0.07100
H 	H 	0.54940 0.10618 0.82190 0.05200
H 	H 	0.56532 0.46385 0.83301 0.03700
H 	H 	0.53886 0.48483 0.73166 0.05400
C 	C 	0.27961 0.89972 0.44712 -0.07100
C 	C 	0.24987 0.09314 0.45903 -0.13900
H 	H 	0.28316 0.20356 0.43931 0.06600
H 	H 	0.20307 0.10933 0.42429 0.05200
H 	H 	0.24194 0.11459 0.52410 0.05300
H 	H 	0.25232 0.78700 0.47507 0.03700
H 	H 	0.32493 0.90000 0.48529 0.05100
C 	C 	0.72039 0.39973 0.55288 -0.07300
C 	C 	0.75013 0.59316 0.54097 -0.13700
H 	H 	0.71684 0.70357 0.56069 0.06700
H 	H 	0.79693 0.60935 0.57571 0.05300
H 	H 	0.75806 0.61460 0.47590 0.05300
H 	H 	0.74768 0.28702 0.52493 0.03700
H 	H 	0.67507 0.40001 0.51471 0.05100
N 	N 	0.32541 0.11731 0.94814 -0.18500
H 	H 	0.35072 0.22187 0.91920 0.07600
H 	H 	0.35837 0.03242 0.98070 0.07100
N 	N 	0.67459 0.61729 0.05186 -0.18600
H 	H 	0.64928 0.72185 0.08080 0.07600
H 	H 	0.64163 0.53240 0.01930 0.07200
