data_crystal

_cell_length_a 10.93079
_cell_length_b 11.08012
_cell_length_c 18.74721
_cell_angle_alpha 90.45961
_cell_angle_beta  89.44483
_cell_angle_gamma 119.97808

_symmetry_space_group_name_	'P 1'
_symmetry_space_group_name_H-M	'P 1'

loop_
_symmetry_equiv_pos_as_xyz
  x,y,z

loop_
_atom_site_label
_atom_site_type_symbol
_atom_site_fract_x
_atom_site_fract_y
_atom_site_fract_z
_atom_site_charge
C 	C 	0.86165 0.64157 0.60220 0.38300
C 	C 	0.30410 0.55612 0.79116 -0.04300
C 	C 	0.29614 0.54566 0.71845 0.03100
C 	C 	0.31914 0.66001 0.67708 -0.20200
C 	C 	0.88087 0.21359 0.83998 -0.18700
C 	C 	0.08993 0.19391 0.82759 -0.30700
C 	C 	0.18116 0.16838 0.78536 0.19500
C 	C 	0.15934 0.15650 0.71210 -0.08600
C 	C 	0.05000 0.16701 0.68131 -0.15300
C 	C 	0.96757 0.20887 0.72165 0.11400
C 	C 	0.98001 0.20628 0.79656 0.26200
C 	C 	0.27026 0.63112 0.60380 0.44000
C 	C 	0.78416 0.27714 0.73972 -0.03800
C 	C 	0.80792 0.27688 0.81412 0.13800
C 	C 	0.66942 0.30012 0.72138 0.16900
C 	C 	0.59322 0.32389 0.77517 -0.10600
C 	C 	0.63526 0.34369 0.84517 0.05500
C 	C 	0.74700 0.32743 0.86405 -0.09000
C 	C 	0.87099 0.24734 0.69092 -0.03200
C 	C 	0.67836 0.59894 0.70007 0.00700
C 	C 	0.65876 0.62212 0.77248 -0.02100
C 	C 	0.77260 0.72409 0.81205 -0.05800
C 	C 	0.88235 0.28216 0.61233 0.32900
C 	C 	0.89068 0.82290 0.77459 -0.02000
C 	C 	0.90542 0.80522 0.70250 0.00800
C 	C 	0.81036 0.68135 0.66751 -0.09200
C 	C 	0.26988 0.53995 0.27679 -0.00200
C 	C 	0.27809 0.55191 0.20400 -0.00800
C 	C 	0.32668 0.68225 0.17243 -0.13500
C 	C 	0.34530 0.79577 0.21410 -0.01100
C 	C 	0.32998 0.78174 0.28788 -0.01300
C 	C 	0.29868 0.65510 0.31955 -0.13100
C 	C 	0.71233 0.11790 0.29283 0.39500
C 	C 	0.86474 0.63833 0.39802 0.40300
C 	C 	0.70689 0.10945 0.21994 -0.08300
C 	C 	0.82606 0.13435 0.17963 -0.15900
C 	C 	0.95120 0.16381 0.21413 0.42600
C 	C 	0.95845 0.17751 0.28802 0.09600
C 	C 	0.84101 0.16195 0.32711 -0.20900
C 	C 	0.89258 0.78681 0.29664 0.00400
C 	C 	0.88631 0.79807 0.22400 0.00300
C 	C 	0.80379 0.67927 0.18210 -0.11300
C 	C 	0.71967 0.54995 0.21431 0.01700
C 	C 	0.72827 0.53789 0.28758 0.00300
C 	C 	0.26538 0.63004 0.39479 0.41400
C 	C 	0.81979 0.65582 0.32835 -0.10200
C 	C 	0.81575 0.11527 0.90044 0.44000
C 	C 	0.39675 0.70125 0.89670 0.39300
C 	C 	0.77107 0.73451 0.89084 0.27000
C 	C 	0.80424 0.10132 0.10423 0.46900
C 	C 	0.39217 0.70355 0.10251 0.40300
C 	C 	0.79482 0.69991 0.10670 0.42500
C 	C 	0.86098 0.22547 0.39709 0.49200
C 	C 	0.35923 0.78812 0.71010 0.18600
C 	C 	0.37660 0.80102 0.78373 -0.09200
C 	C 	0.34786 0.68433 0.82430 -0.09600
Cr	Cr	0.79166 0.39025 0.49993 1.53900
Cr	Cr	0.09852 0.70829 0.50054 1.47100
Cr	Cr	0.10977 0.40143 0.49948 1.47800
Cr	Cr	0.87479 0.92589 0.00007 1.47600
Cr	Cr	0.57412 0.94867 0.99930 1.49000
Cr	Cr	0.55142 0.62532 0.00092 1.52400
H 	H 	0.50591 0.33826 0.76106 0.07400
H 	H 	0.57968 0.36966 0.88492 0.02200
H 	H 	0.59362 0.51489 0.67099 0.03700
H 	H 	0.55906 0.55528 0.79869 0.04300
H 	H 	0.97471 0.91072 0.80170 0.04000
H 	H 	0.99731 0.88440 0.67549 0.05200
H 	H 	0.23895 0.43909 0.29931 0.03600
H 	H 	0.25826 0.46108 0.17294 0.05600
H 	H 	0.37791 0.89594 0.19021 -0.01600
H 	H 	0.41241 0.90185 0.80849 0.02200
H 	H 	0.34397 0.86926 0.32005 0.01600
H 	H 	0.60704 0.08112 0.19530 0.12700
H 	H 	0.05753 0.20737 0.31409 -0.03600
H 	H 	0.96172 0.87932 0.32720 0.03200
H 	H 	0.94695 0.90060 0.20067 0.04100
H 	H 	0.65148 0.45861 0.18281 0.04400
H 	H 	0.67057 0.43533 0.31131 0.05900
H 	H 	0.28502 0.46535 0.82109 0.04000
H 	H 	0.26515 0.44498 0.69522 0.01800
H 	H 	0.22374 0.13335 0.67790 0.07400
H 	H 	0.10660 0.20936 0.88443 0.07900
H 	H 	0.02902 0.13333 0.62665 0.04900
H 	H 	0.77737 0.34116 0.91972 0.08500
O 	O 	0.76650 0.25004 0.57979 -0.38900
O 	O 	0.21869 0.70190 0.42596 -0.58000
O 	O 	0.24949 0.51644 0.41942 -0.51200
O 	O 	0.98288 0.28191 0.42489 -0.46000
O 	O 	0.99998 0.49999 0.49998 -0.66700
O 	O 	0.89511 0.80686 0.92043 -0.42000
O 	O 	0.87226 0.04697 0.92500 -0.40500
O 	O 	0.69143 0.08506 0.91855 -0.40800
O 	O 	0.45149 0.82246 0.92525 -0.56000
O 	O 	0.41333 0.60336 0.92044 -0.48200
O 	O 	0.67611 0.62625 0.92675 -0.45700
O 	O 	0.79857 0.51678 0.57478 -0.49200
O 	O 	0.89535 0.80987 0.08095 -0.49200
O 	O 	0.87249 0.04976 0.07380 -0.40900
O 	O 	0.69168 0.08807 0.07907 -0.44300
O 	O 	0.45172 0.82525 0.07405 -0.58400
O 	O 	0.41358 0.60637 0.08096 -0.49500
O 	O 	0.67634 0.62904 0.07555 -0.53100
O 	O 	0.66678 0.83329 0.00009 -0.81300
O 	O 	0.98400 0.73295 0.58109 -0.42900
O 	O 	0.21860 0.70089 0.57476 -0.56400
O 	O 	0.24939 0.51535 0.57994 -0.52400
O 	O 	0.98279 0.28090 0.57370 -0.40000
O 	O 	0.76660 0.25113 0.41926 -0.43800
O 	O 	0.79866 0.51779 0.42598 -0.50800
O 	O 	0.98410 0.73404 0.42057 -0.43800
O 	O 	0.36754 0.89633 0.67140 -0.27100
C 	C 	0.23871 0.89406 0.68153 0.01800
H 	H 	0.24232 0.95014 0.73126 -0.03800
H 	H 	0.14545 0.78688 0.68521 -0.00700
H 	H 	0.22232 0.94482 0.63484 -0.06100
O 	O 	0.63774 0.31413 0.65224 -0.19700
C 	C 	0.49468 0.22421 0.63529 -0.04200
H 	H 	0.44376 0.28710 0.62434 0.03300
H 	H 	0.43554 0.14834 0.67772 0.09900
H 	H 	0.48844 0.16525 0.58606 0.06800
F 	F 	0.59366 0.09265 0.32906 -0.42300
F 	F 	0.06614 0.18214 0.17669 -0.54700
O 	O 	0.29013 0.15096 0.81160 -0.20200
C 	C 	0.27195 0.10840 0.88349 -0.01400
H 	H 	0.16381 0.02033 0.89427 0.04300
H 	H 	0.29883 0.19803 0.91968 0.02100
H 	H 	0.34674 0.07095 0.89501 0.06700
