data_crystal

_cell_length_a 27.85349
_cell_length_b 8.70174
_cell_length_c 7.52364
_cell_angle_alpha 103.19234
_cell_angle_beta  94.90397
_cell_angle_gamma 93.86441

_symmetry_space_group_name_	'P 1'
_symmetry_space_group_name_H-M	'P 1'

loop_
_symmetry_equiv_pos_as_xyz
  x,y,z

loop_
_atom_site_label
_atom_site_type_symbol
_atom_site_fract_x
_atom_site_fract_y
_atom_site_fract_z
_atom_site_charge
C 	C 	0.49822 0.19978 0.45310 0.33100
C 	C 	0.86716 0.37541 0.38768 -0.16000
C 	C 	0.35557 0.49981 0.50327 -0.09000
C 	C 	0.64443 0.50018 0.49673 -0.08800
C 	C 	0.96907 0.36808 0.39366 0.05400
C 	C 	0.03093 0.63186 0.60639 0.05400
C 	C 	0.97981 0.63369 0.60373 0.01600
C 	C 	0.02020 0.36626 0.39631 0.01600
C 	C 	0.94922 0.50072 0.49982 -0.04800
C 	C 	0.05078 0.49923 0.50022 -0.04800
C 	C 	0.93685 0.24090 0.28823 -0.13900
C 	C 	0.50178 0.80022 0.54690 0.33200
C 	C 	0.06315 0.75905 0.71181 -0.13900
C 	C 	0.88703 0.24078 0.28974 0.22600
C 	C 	0.11297 0.75917 0.71030 0.22600
C 	C 	0.40800 0.49829 0.50088 0.32100
C 	C 	0.59200 0.50171 0.49912 0.32100
C 	C 	0.04204 0.23264 0.30429 -0.05700
C 	C 	0.95796 0.76731 0.69576 -0.05700
C 	C 	0.49716 0.03141 0.42737 -0.08100
C 	C 	0.50284 0.96859 0.57263 -0.08100
C 	C 	0.17239 0.38417 0.37618 0.20100
C 	C 	0.10183 0.49856 0.50010 0.10200
C 	C 	0.82761 0.61579 0.62385 0.20100
C 	C 	0.18283 0.60837 0.62820 0.22600
C 	C 	0.81717 0.39158 0.37183 0.22600
C 	C 	0.28374 0.64466 0.51231 -0.06800
C 	C 	0.71626 0.35531 0.48770 -0.06800
C 	C 	0.33444 0.64452 0.53140 0.04800
C 	C 	0.66556 0.35546 0.46861 0.04800
C 	C 	0.32618 0.35670 0.47018 0.05600
C 	C 	0.67382 0.64329 0.52982 0.05600
C 	C 	0.27657 0.35932 0.48115 -0.08800
C 	C 	0.89817 0.50139 0.49994 0.10200
C 	C 	0.72343 0.64066 0.51886 -0.08800
C 	C 	0.25435 0.50167 0.49763 0.13400
C 	C 	0.74565 0.49830 0.50239 0.13400
C 	C 	0.34591 0.20601 0.41487 0.08900
C 	C 	0.65410 0.79398 0.58513 0.08900
C 	C 	0.45097 0.34939 0.92820 0.14300
C 	C 	0.54903 0.65061 0.07179 0.14300
C 	C 	0.11112 0.08386 0.22984 0.08800
C 	C 	0.88888 0.91609 0.77019 0.08800
C 	C 	0.63504 0.20772 0.41415 0.09200
C 	C 	0.12217 0.37040 0.39057 -0.08600
C 	C 	0.36495 0.79227 0.58586 0.09200
C 	C 	0.73764 0.21065 0.50188 0.13400
C 	C 	0.26235 0.78932 0.49813 0.13400
C 	C 	0.87783 0.62955 0.60946 -0.08600
C 	C 	0.09196 0.23338 0.30170 0.03100
C 	C 	0.90804 0.76657 0.69833 0.03100
C 	C 	0.13284 0.62455 0.61236 -0.15900
Cu	Cu	0.50538 0.51738 0.68438 0.92500
Cu	Cu	0.49462 0.48262 0.31562 0.92500
H 	H 	0.25488 0.24879 0.47008 0.09100
H 	H 	0.16764 0.91188 0.72380 0.17800
H 	H 	0.74513 0.75118 0.52994 0.09100
H 	H 	0.94881 0.13650 0.20337 0.08700
H 	H 	0.05119 0.86345 0.79668 0.08700
H 	H 	0.02144 0.12234 0.23772 0.05100
H 	H 	0.97856 0.87761 0.76233 0.05100
H 	H 	0.49192 0.95889 0.28771 0.10100
H 	H 	0.50808 0.04111 0.71229 0.10100
H 	H 	0.83235 0.08808 0.27625 0.17800
N 	N 	0.20224 0.49913 0.49919 -0.17900
N 	N 	0.87363 0.03642 0.82465 -0.08800
N 	N 	0.61038 0.09051 0.36743 -0.08900
N 	N 	0.38962 0.90949 0.63257 -0.08900
N 	N 	0.75461 0.09512 0.51374 -0.11100
N 	N 	0.24538 0.90485 0.48628 -0.11100
N 	N 	0.79776 0.50083 0.50084 -0.17900
N 	N 	0.48651 0.45643 0.03851 -0.15900
N 	N 	0.51349 0.54357 0.96149 -0.15900
N 	N 	0.36170 0.08568 0.36694 -0.09100
N 	N 	0.63831 0.91432 0.63304 -0.09100
N 	N 	0.42106 0.25943 0.83813 -0.10200
N 	N 	0.57894 0.74057 0.16187 -0.10200
N 	N 	0.12637 0.96354 0.17538 -0.08800
O 	O 	0.50350 0.28612 0.61978 -0.36600
O 	O 	0.80912 0.71380 0.76206 -0.17600
O 	O 	0.78848 0.30286 0.22577 -0.18100
O 	O 	0.21152 0.69710 0.77426 -0.18100
O 	O 	0.85935 0.10253 0.20233 -0.28100
O 	O 	0.14065 0.89742 0.79771 -0.28100
O 	O 	0.49650 0.71388 0.38022 -0.36600
O 	O 	0.49441 0.25678 0.30836 -0.36600
O 	O 	0.50559 0.74322 0.69164 -0.36600
O 	O 	0.43481 0.51470 0.65569 -0.36000
O 	O 	0.56519 0.48530 0.34431 -0.36000
O 	O 	0.42572 0.48535 0.34428 -0.36100
O 	O 	0.57428 0.51465 0.65572 -0.36100
O 	O 	0.19088 0.28617 0.23797 -0.17600
