data_crystal

_cell_length_a 8.24840
_cell_length_b 12.76961
_cell_length_c 19.06354
_cell_angle_alpha 99.40480
_cell_angle_beta  91.47993
_cell_angle_gamma 98.73645

_symmetry_space_group_name_	'P 1'
_symmetry_space_group_name_H-M	'P 1'

loop_
_symmetry_equiv_pos_as_xyz
  x,y,z

loop_
_atom_site_label
_atom_site_type_symbol
_atom_site_fract_x
_atom_site_fract_y
_atom_site_fract_z
_atom_site_charge
Ba	Ba	0.85318 0.54779 0.46530 1.88800
Ba	Ba	0.33665 0.45230 0.53471 1.91000
C 	C 	0.69876 0.93438 0.30931 -0.20400
C 	C 	0.01696 0.54288 0.72634 -0.05400
C 	C 	0.85568 0.40492 0.80892 -0.02900
C 	C 	0.10749 0.75504 0.26717 0.11600
C 	C 	0.78450 0.41469 0.74347 -0.06300
C 	C 	0.35091 0.57311 0.18412 -0.03600
C 	C 	0.41521 0.56748 0.25146 -0.05900
C 	C 	0.13332 0.43097 0.19782 -0.01700
C 	C 	0.17164 0.45245 0.27206 -0.05400
C 	C 	0.98352 0.48525 0.84369 -0.00900
C 	C 	0.87540 0.47367 0.69925 0.00200
C 	C 	0.62648 0.82111 0.31587 0.10500
C 	C 	0.21314 0.49870 0.15163 0.01600
C 	C 	0.31837 0.51638 0.29750 0.00600
C 	C 	0.76093 0.42049 0.95734 -0.05000
C 	C 	0.15645 0.78257 0.19441 -0.21300
C 	C 	0.65805 0.37373 0.00386 -0.01300
C 	C 	0.70807 0.38853 0.07466 -0.01800
C 	C 	0.86346 0.44342 0.09665 -0.04500
C 	C 	0.98559 0.46353 0.04807 0.02000
C 	C 	0.93090 0.45650 0.97477 -0.00400
C 	C 	0.15502 0.49391 0.07213 -0.01400
C 	C 	0.46330 0.28973 0.31694 0.13400
C 	C 	0.26719 0.52118 0.01895 0.01300
C 	C 	0.21158 0.51971 0.94637 0.00900
C 	C 	0.04221 0.48803 0.92244 -0.00500
C 	C 	0.43862 0.54756 0.03503 -0.03200
C 	C 	0.23519 0.78935 0.62020 0.12800
C 	C 	0.54499 0.59392 0.98954 -0.04100
C 	C 	0.49260 0.59069 0.92012 -0.01100
C 	C 	0.33254 0.54535 0.89804 -0.05000
C 	C 	0.76813 0.18046 0.52154 0.02400
C 	C 	0.42366 0.80952 0.47427 -0.01500
C 	C 	0.50334 0.28265 0.23820 -0.21200
C 	C 	0.39905 0.98401 0.44680 -0.09200
C 	C 	0.33327 0.87662 0.44470 -0.02900
C 	C 	0.57483 0.85003 0.51115 -0.04800
C 	C 	0.64085 0.96130 0.51624 -0.04300
C 	C 	0.55184 0.02841 0.48228 0.08700
C 	C 	0.23196 0.90944 0.63322 -0.21300
C 	C 	0.61866 0.13813 0.48446 -0.09000
C 	C 	0.85812 0.11581 0.55347 -0.08200
C 	C 	0.79377 0.00741 0.55238 0.03300
C 	C 	0.97672 0.20431 0.37746 0.12800
C 	C 	0.06577 0.22338 0.72846 0.10900
C 	C 	0.06165 0.10673 0.36546 -0.23600
C 	C 	0.72415 0.70065 0.67809 0.13100
C 	C 	0.74616 0.73284 0.75856 -0.21000
C 	C 	0.09270 0.19171 0.80096 -0.20200
C 	C 	0.55635 0.16313 0.69237 0.09200
C 	C 	0.60846 0.08593 0.73831 -0.19900
C 	C 	0.05242 0.56176 0.80086 -0.01800
H 	H 	0.66606 0.81109 0.37010 0.02400
H 	H 	0.83728 0.67363 0.65726 -0.01900
H 	H 	0.61976 0.63357 0.66585 -0.01600
H 	H 	0.68746 0.99073 0.35879 0.08400
H 	H 	0.85650 0.79524 0.77289 0.08400
H 	H 	0.76135 0.66185 0.78321 0.07800
H 	H 	0.63626 0.76509 0.77987 0.08700
H 	H 	0.49006 0.80961 0.31017 0.01800
H 	H 	0.33207 0.29514 0.32337 0.00400
H 	H 	0.53695 0.36612 0.34434 -0.02900
H 	H 	0.50925 0.36385 0.22415 0.08800
H 	H 	0.30492 0.94767 0.68281 0.08600
H 	H 	0.62683 0.25984 0.23038 0.12100
H 	H 	0.82916 0.93395 0.30038 0.11500
H 	H 	0.27495 0.83688 0.20003 0.11500
H 	H 	0.14232 0.30282 0.72786 0.02900
H 	H 	0.93398 0.22893 0.72055 0.00200
H 	H 	0.22308 0.18279 0.80974 0.09700
H 	H 	0.06186 0.25438 0.84377 0.07900
H 	H 	0.01356 0.11417 0.80391 0.08500
H 	H 	0.66626 0.19541 0.66540 0.01200
H 	H 	0.46508 0.11804 0.65019 0.03200
H 	H 	0.28387 0.94598 0.58826 0.09000
H 	H 	0.70591 0.12914 0.77843 0.07600
H 	H 	0.65668 0.01937 0.70446 0.08400
H 	H 	0.98747 0.70191 0.26137 0.03600
H 	H 	0.50252 0.05202 0.76676 0.08500
H 	H 	0.13928 0.63213 0.82354 0.04500
H 	H 	0.80546 0.33644 0.83245 0.03600
H 	H 	0.41142 0.63673 0.15860 0.05300
H 	H 	0.03938 0.36326 0.17776 0.06900
H 	H 	0.83104 0.47021 0.64489 -0.01400
H 	H 	0.36085 0.52261 0.35242 -0.01500
H 	H 	0.10361 0.92439 0.63900 0.10200
H 	H 	0.69847 0.43446 0.91065 0.04800
H 	H 	0.53161 0.34056 0.98720 0.03300
H 	H 	0.62140 0.36697 0.11329 0.04200
H 	H 	0.20195 0.71014 0.28448 0.01300
H 	H 	0.88439 0.47177 0.15202 0.06800
H 	H 	0.49728 0.52714 0.08050 0.04900
H 	H 	0.67358 0.61957 0.00541 0.05200
H 	H 	0.57961 0.61472 0.88196 0.03800
H 	H 	0.30836 0.52844 0.84226 0.06900
H 	H 	0.32895 0.03175 0.42064 0.09200
H 	H 	0.84386 0.17775 0.38158 0.01000
H 	H 	0.86511 0.96061 0.57934 0.03700
H 	H 	0.81850 0.26421 0.52311 -0.01300
H 	H 	0.37259 0.72556 0.47103 -0.00400
H 	H 	0.17110 0.70830 0.15854 0.09100
H 	H 	0.36267 0.77507 0.61236 -0.00600
H 	H 	0.15584 0.75341 0.57167 -0.02000
H 	H 	0.52683 0.91160 0.12766 0.17200
H 	H 	0.35267 0.25239 0.07644 0.15900
H 	H 	0.77628 0.77031 0.09283 0.16900
H 	H 	0.02760 0.25529 0.42829 -0.02600
H 	H 	0.02388 0.05931 0.31265 0.14200
H 	H 	0.03546 0.05837 0.40819 0.11400
H 	H 	0.19422 0.13178 0.36236 0.12400
O 	O 	0.87511 0.42318 0.32629 -0.33800
O 	O 	0.19315 0.12467 0.54591 -0.20300
O 	O 	0.11138 0.14484 0.67578 -0.21800
O 	O 	0.12341 0.43304 0.41495 -0.50700
O 	O 	0.57795 0.63437 0.53614 -0.50200
O 	O 	0.34190 0.23131 0.46574 -0.31800
O 	O 	0.50231 0.20019 0.34467 -0.21600
O 	O 	0.46110 0.44776 0.75819 -0.21800
O 	O 	0.48221 0.24168 0.73510 -0.22000
O 	O 	0.66101 0.62507 0.36968 -0.35700
O 	O 	0.74851 0.55100 0.24379 -0.21500
O 	O 	0.69375 0.78977 0.64866 -0.24600
O 	O 	0.99699 0.25249 0.31688 -0.22200
O 	O 	0.69108 0.75043 0.26350 -0.19800
O 	O 	0.84780 0.76873 0.53431 -0.33100
O 	O 	0.08225 0.68447 0.40544 -0.35200
O 	O 	0.99469 0.87522 0.44622 -0.21800
O 	O 	0.43981 0.00541 0.25960 -0.18000
O 	O 	0.71098 0.07540 0.22037 -0.17400
O 	O 	0.57724 0.88027 0.16540 -0.28300
O 	O 	0.21239 0.14598 0.21542 -0.17200
O 	O 	0.43222 0.10503 0.13689 -0.19600
O 	O 	0.10012 0.84856 0.31679 -0.21400
O 	O 	0.28265 0.26201 0.11767 -0.29300
O 	O 	0.97862 0.94253 0.19004 -0.19900
O 	O 	0.07567 0.85755 0.07815 -0.21700
O 	O 	0.83391 0.74964 0.13338 -0.28500
O 	O 	0.31460 0.57686 0.67375 -0.33800
O 	O 	0.06630 0.56705 0.58506 -0.50200
O 	O 	0.52870 0.37502 0.63033 -0.35200
O 	O 	0.17949 0.74839 0.68042 -0.24100
O 	O 	0.61176 0.36572 0.46387 -0.47800
O 	O 	0.10746 0.31562 0.59457 -0.35200
P 	P 	0.04293 0.39223 0.33741 0.35600
P 	P 	0.67223 0.75490 0.55573 0.33900
P 	P 	0.12681 0.82211 0.40391 0.31000
P 	P 	0.14679 0.60786 0.66260 0.34600
P 	P 	0.06547 0.17562 0.59212 0.31900
P 	P 	0.62791 0.62123 0.27980 0.32200
P 	P 	0.52058 0.23076 0.43831 0.30600
P 	P 	0.56586 0.36908 0.71894 0.32000
S 	S 	0.60351 0.97781 0.23736 0.38200
S 	S 	0.35413 0.19399 0.17702 0.41000
S 	S 	0.00906 0.83796 0.14833 0.42800
