data_crystal

_cell_length_a 8.19503
_cell_length_b 14.23086
_cell_length_c 15.04197
_cell_angle_alpha 93.64073
_cell_angle_beta  99.07364
_cell_angle_gamma 90.80611

_symmetry_space_group_name_	'P 1'
_symmetry_space_group_name_H-M	'P 1'

loop_
_symmetry_equiv_pos_as_xyz
  x,y,z

loop_
_atom_site_label
_atom_site_type_symbol
_atom_site_fract_x
_atom_site_fract_y
_atom_site_fract_z
_atom_site_charge
Ba	Ba	0.14288 0.54478 0.45402 1.82700
Ba	Ba	0.66729 0.45521 0.54590 1.99200
C 	C 	0.27276 0.77319 0.09948 -0.19800
C 	C 	0.32053 0.74725 0.19648 0.09700
C 	C 	0.53066 0.74255 0.65460 0.12100
C 	C 	0.57369 0.84710 0.67392 -0.20800
C 	C 	0.96410 0.19697 0.75177 0.12200
C 	C 	0.95533 0.09701 0.78208 -0.04300
C 	C 	0.48908 0.25226 0.80175 0.09800
C 	C 	0.53006 0.22452 0.89861 -0.19800
C 	C 	0.01744 0.93841 0.54458 -0.12900
C 	C 	0.82044 0.80212 0.49512 -0.08900
C 	C 	0.66489 0.77131 0.45017 0.01900
C 	C 	0.84757 0.79685 0.24265 0.09600
C 	C 	0.55067 0.83460 0.41132 -0.06800
C 	C 	0.59500 0.92968 0.41059 -0.01900
C 	C 	0.75249 0.96327 0.45248 -0.01200
C 	C 	0.86534 0.90040 0.49789 0.11500
C 	C 	0.94745 0.09753 0.49775 0.07700
C 	C 	0.06037 0.03471 0.54327 -0.02500
C 	C 	0.99180 0.19587 0.50095 -0.01000
C 	C 	0.14614 0.22720 0.54745 -0.06800
C 	C 	0.26107 0.16399 0.58587 -0.04500
C 	C 	0.21757 0.06853 0.58570 -0.03600
C 	C 	0.85161 0.89501 0.20830 -0.19900
C 	C 	0.79511 0.05972 0.45149 -0.04700
C 	C 	0.24313 0.46348 0.76807 0.01700
C 	C 	0.15474 0.42624 0.83023 -0.09200
C 	C 	0.21661 0.43778 0.92281 -0.01400
C 	C 	0.36493 0.49126 0.95478 0.00100
C 	C 	0.44339 0.53416 0.88969 -0.01900
C 	C 	0.38406 0.51955 0.79786 -0.05500
C 	C 	0.59126 0.55138 0.08349 -0.03000
C 	C 	0.65529 0.56581 0.17515 -0.05700
C 	C 	0.41864 0.48455 0.21348 -0.06300
C 	C 	0.76136 0.33648 0.27773 0.12600
C 	C 	0.35171 0.47125 0.12169 -0.02300
C 	C 	0.43512 0.50570 0.05414 -0.00500
C 	C 	0.56656 0.53510 0.24000 0.00600
C 	C 	0.72151 0.30728 0.17737 -0.20700
C 	C 	0.09354 0.71157 0.73212 0.11500
C 	C 	0.18621 0.79261 0.79346 -0.19200
C 	C 	0.28305 0.25912 0.35638 0.12500
C 	C 	0.27288 0.15253 0.33655 -0.20400
H 	H 	0.26036 0.67828 0.20322 0.02300
H 	H 	0.62220 0.25201 0.16537 0.08400
H 	H 	0.67958 0.36803 0.13783 0.08300
H 	H 	0.83357 0.27889 0.15322 0.10100
H 	H 	0.18052 0.67163 0.69495 -0.01000
H 	H 	0.23262 0.84672 0.75260 0.07100
H 	H 	0.29196 0.76543 0.83933 0.08400
H 	H 	0.10086 0.82759 0.83578 0.06800
H 	H 	0.16359 0.28340 0.37406 -0.02700
H 	H 	0.38376 0.27612 0.41376 -0.01600
H 	H 	0.13653 0.77208 0.08108 0.07600
H 	H 	0.16823 0.13348 0.28168 0.06900
H 	H 	0.25364 0.11584 0.39718 0.07300
H 	H 	0.39000 0.12792 0.31497 0.08300
H 	H 	0.45639 0.74062 0.21022 0.01200
H 	H 	0.32412 0.72195 0.05328 0.07300
H 	H 	0.63702 0.70762 0.63008 -0.00700
H 	H 	0.42075 0.73453 0.60119 -0.00800
H 	H 	0.68413 0.85716 0.72689 0.10100
H 	H 	0.59998 0.87842 0.61190 0.08300
H 	H 	0.46904 0.88474 0.69705 0.08000
H 	H 	0.32204 0.84451 0.09130 0.07100
H 	H 	0.80847 0.94700 0.25674 0.08100
H 	H 	0.88198 0.19985 0.68578 0.03600
H 	H 	0.09337 0.21276 0.74345 -0.02700
H 	H 	0.82551 0.07753 0.78687 0.06600
H 	H 	0.00019 0.04574 0.73262 0.00400
H 	H 	0.03429 0.09280 0.84871 0.00600
H 	H 	0.35399 0.26275 0.78633 0.00800
H 	H 	0.55534 0.31968 0.79644 0.03400
H 	H 	0.48932 0.27978 0.94508 0.07300
H 	H 	0.66533 0.21635 0.91732 0.09600
H 	H 	0.93677 0.79621 0.30617 0.05100
H 	H 	0.46547 0.15732 0.90604 0.07600
H 	H 	0.62865 0.69788 0.44999 -0.01200
H 	H 	0.50535 0.97760 0.37899 0.03700
H 	H 	0.30721 0.02066 0.61744 0.04300
H 	H 	0.18111 0.30121 0.54917 -0.00300
H 	H 	0.10504 0.89392 0.58222 0.07500
H 	H 	0.70727 0.10467 0.41460 0.06800
H 	H 	0.66938 0.57395 0.03731 0.05500
H 	H 	0.14396 0.40678 0.96759 0.03000
H 	H 	0.23666 0.43195 0.10534 0.04200
H 	H 	0.72144 0.78190 0.25654 0.01300
H 	H 	0.54815 0.58199 0.90780 0.05600
H 	H 	0.61825 0.54453 0.31100 -0.00900
H 	H 	0.19534 0.45517 0.69664 -0.01800
H 	H 	0.97915 0.91514 0.20008 0.11000
H 	H 	0.76963 0.89638 0.14261 0.08400
H 	H 	0.64719 0.35970 0.30214 -0.01400
H 	H 	0.85417 0.39517 0.28791 0.00100
O 	O 	0.11369 0.72820 0.53275 -0.39100
O 	O 	0.31471 0.30109 0.27871 -0.24800
O 	O 	0.89053 0.73095 0.17744 -0.20300
O 	O 	0.69660 0.27174 0.46723 -0.35300
O 	O 	0.93838 0.38788 0.45949 -0.48900
O 	O 	0.48463 0.33110 0.62733 -0.36000
O 	O 	0.82319 0.25826 0.32287 -0.23000
O 	O 	0.38911 0.54897 0.60521 -0.49300
O 	O 	0.90474 0.37863 0.67033 -0.34000
O 	O 	0.81227 0.43425 0.82595 -0.18700
O 	O 	0.91259 0.26035 0.81672 -0.21200
O 	O 	0.87190 0.61211 0.54044 -0.50400
O 	O 	0.42118 0.45102 0.39472 -0.51900
O 	O 	0.66273 0.54823 0.71735 -0.30900
O 	O 	0.49696 0.70439 0.73399 -0.23100
O 	O 	0.59909 0.16501 0.57770 -0.20700
O 	O 	0.53916 0.18121 0.74340 -0.22100
O 	O 	0.32566 0.66889 0.37260 -0.35600
O 	O 	0.21395 0.83507 0.42199 -0.22300
O 	O 	0.96363 0.75049 0.67554 -0.19600
O 	O 	0.26772 0.81721 0.25515 -0.23800
O 	O 	0.14757 0.45171 0.28263 -0.36800
O 	O 	0.90554 0.62135 0.32960 -0.32800
O 	O 	0.99492 0.55812 0.17424 -0.16900
P 	P 	0.94756 0.71405 0.56048 0.40700
P 	P 	0.32515 0.42386 0.29797 0.35600
P 	P 	0.86231 0.61771 0.21238 0.31600
P 	P 	0.86273 0.28594 0.43944 0.35400
P 	P 	0.94648 0.37559 0.78762 0.35900
P 	P 	0.33988 0.79059 0.36633 0.31100
P 	P 	0.48079 0.58163 0.71605 0.30900
P 	P 	0.47079 0.20888 0.63211 0.30800
Br	Br	0.99416 0.63313 0.81209 -0.17300
