data_crystal

_cell_length_a 11.01059
_cell_length_b 10.95619
_cell_length_c 18.83240
_cell_angle_alpha 90.10435
_cell_angle_beta  89.66966
_cell_angle_gamma 60.28613

_symmetry_space_group_name_	'P 1'
_symmetry_space_group_name_H-M	'P 1'

loop_
_symmetry_equiv_pos_as_xyz
  x,y,z

loop_
_atom_site_label
_atom_site_type_symbol
_atom_site_fract_x
_atom_site_fract_y
_atom_site_fract_z
_atom_site_charge
O 	O 	0.50734 0.25569 0.58143 -0.45700
O 	O 	0.28036 0.52738 0.57891 -0.51300
C 	C 	0.24526 0.64136 0.61229 0.40900
O 	O 	0.26060 0.73961 0.58458 -0.49000
O 	O 	0.53237 0.69505 0.57383 -0.52500
C 	C 	0.65512 0.62404 0.59973 0.38500
O 	O 	0.74485 0.50343 0.57638 -0.49400
O 	O 	0.69908 0.27650 0.57195 -0.53300
C 	C 	0.62753 0.22899 0.60277 0.43600
O 	O 	0.49886 0.25652 0.41986 -0.48000
O 	O 	0.27249 0.52815 0.42914 -0.48100
C 	C 	0.28018 0.62573 0.39226 0.34000
O 	O 	0.25211 0.74044 0.42301 -0.45900
O 	O 	0.52451 0.69582 0.42405 -0.53300
C 	C 	0.64627 0.62117 0.39243 0.39500
O 	O 	0.73637 0.50426 0.41481 -0.50200
O 	O 	0.69122 0.27727 0.42218 -0.52100
C 	C 	0.61023 0.23618 0.39321 0.42900
Cr	Cr	0.39294 0.39795 0.50223 1.53400
Cr	Cr	0.39840 0.70850 0.50126 1.52200
Cr	Cr	0.70864 0.39353 0.49646 1.52900
O 	O 	0.49999 0.49999 0.49998 -0.75000
C 	C 	0.61076 0.84064 0.77174 0.13100
H 	H 	0.65903 0.90851 0.76973 -0.00300
C 	C 	0.57857 0.81398 0.69442 -0.01700
H 	H 	0.46984 0.83242 0.69340 0.02900
H 	H 	0.87079 0.66217 0.64695 0.04000
C 	C 	0.85585 0.63935 0.76348 0.14800
C 	C 	0.65631 0.59321 0.80112 0.07500
C 	C 	0.71788 0.69534 0.80719 -0.14500
H 	H 	0.54997 0.64609 0.82525 0.03100
C 	C 	0.67711 0.65659 0.67324 -0.04800
C 	C 	0.83306 0.61161 0.68538 -0.10700
C 	C 	0.64151 0.56459 0.72247 -0.09300
H 	H 	0.53314 0.58620 0.71286 0.05100
H 	H 	0.71079 0.45125 0.70949 0.06700
H 	H 	0.93482 0.53864 0.78631 -0.00200
H 	H 	0.89859 0.49689 0.67487 0.03700
H 	H 	0.44552 0.25852 0.70105 0.05400
C 	C 	0.69658 0.15440 0.82344 -0.09200
C 	C 	0.81485 0.12291 0.77928 0.07500
C 	C 	0.79777 0.13122 0.70422 0.09000
C 	C 	0.54948 0.21864 0.72114 0.03300
C 	C 	0.56534 0.20921 0.79295 0.01400
C 	C 	0.94806 0.08701 0.80625 -0.13900
C 	C 	0.05830 0.06141 0.76053 0.10000
C 	C 	0.04288 0.06059 0.68764 0.11300
C 	C 	0.91539 0.08998 0.65960 -0.17000
C 	C 	0.66297 0.18151 0.67586 -0.11100
H 	H 	0.96799 0.08914 0.86193 0.07700
H 	H 	0.47432 0.23593 0.82507 0.05900
H 	H 	0.15860 0.03678 0.78154 0.07500
H 	H 	0.13078 0.03518 0.65269 0.05200
H 	H 	0.91076 0.07982 0.60275 0.07600
H 	H 	0.27678 0.80533 0.70510 0.01100
C 	C 	0.20277 0.65108 0.83973 -0.12300
C 	C 	0.20760 0.53658 0.80227 0.11300
C 	C 	0.20251 0.53947 0.72676 0.02700
C 	C 	0.24769 0.73528 0.73043 -0.01300
C 	C 	0.23754 0.74002 0.80382 0.01400
C 	C 	0.21345 0.42169 0.83868 -0.14000
C 	C 	0.20108 0.31680 0.80255 0.21800
C 	C 	0.17866 0.32876 0.72955 -0.09400
C 	C 	0.17758 0.43926 0.69202 0.01000
C 	C 	0.22009 0.64395 0.69006 -0.09600
H 	H 	0.23458 0.40915 0.89503 0.08000
H 	H 	0.24841 0.81937 0.83264 0.01300
H 	H 	0.16336 0.25134 0.70139 0.09200
H 	H 	0.15374 0.44513 0.63632 0.05400
H 	H 	0.57132 0.86833 0.32458 -0.00200
C 	C 	0.66353 0.67584 0.17128 -0.16000
C 	C 	0.72466 0.53979 0.20010 0.08400
C 	C 	0.75616 0.52388 0.27274 -0.01000
C 	C 	0.61840 0.77666 0.29028 -0.02100
C 	C 	0.62155 0.79214 0.21699 0.00600
C 	C 	0.77626 0.41905 0.15622 -0.10700
C 	C 	0.88687 0.29211 0.17869 0.06200
C 	C 	0.93618 0.27995 0.24738 -0.23800
C 	C 	0.87078 0.39309 0.29446 0.02700
C 	C 	0.67779 0.64269 0.31883 -0.11400
H 	H 	0.74095 0.42583 0.10205 0.06100
H 	H 	0.58700 0.89610 0.19585 0.00100
H 	H 	0.93579 0.20376 0.14237 -0.01100
H 	H 	0.02473 0.18216 0.26449 0.18700
H 	H 	0.92095 0.37828 0.34520 -0.00700
H 	H 	0.84819 0.09094 0.32325 0.03300
C 	C 	0.65415 0.16272 0.17405 -0.12000
C 	C 	0.51877 0.23564 0.20206 0.05700
C 	C 	0.50203 0.23306 0.27581 0.06000
C 	C 	0.75612 0.12748 0.29042 0.01700
C 	C 	0.77146 0.10459 0.21869 0.01400
C 	C 	0.40052 0.29664 0.15735 -0.04400
C 	C 	0.27143 0.32355 0.18258 -0.00500
C 	C 	0.25502 0.30663 0.25407 -0.01400
C 	C 	0.36631 0.26610 0.30061 -0.04000
C 	C 	0.62336 0.19265 0.31980 -0.11900
H 	H 	0.40898 0.31589 0.10166 0.04900
H 	H 	0.87682 0.03972 0.19836 0.04600
H 	H 	0.18349 0.35959 0.14698 0.05100
H 	H 	0.15460 0.32724 0.27422 0.06200
H 	H 	0.34179 0.25002 0.35380 0.06100
H 	H 	0.09212 0.56475 0.33670 0.06100
C 	C 	0.16217 0.66234 0.17846 -0.13300
C 	C 	0.25478 0.70868 0.19940 0.04400
C 	C 	0.26812 0.72555 0.27197 0.04500
C 	C 	0.13623 0.60702 0.29901 0.00200
C 	C 	0.09642 0.62063 0.22886 0.01200
C 	C 	0.31068 0.76472 0.14985 -0.04100
C 	C 	0.32805 0.87667 0.16992 -0.05100
C 	C 	0.31596 0.91435 0.24110 0.02700
C 	C 	0.30197 0.82937 0.29229 -0.08500
C 	C 	0.22895 0.65159 0.32034 -0.09500
H 	H 	0.32003 0.73760 0.09396 0.03700
H 	H 	0.01549 0.59675 0.21381 0.06700
H 	H 	0.35101 0.93407 0.13032 0.01300
H 	H 	0.30687 0.85671 0.34637 0.03300
O 	O 	0.08957 0.82545 0.93059 -0.44800
O 	O 	0.81870 0.05426 0.92986 -0.45700
C 	C 	0.70518 0.09964 0.89550 0.40500
O 	O 	0.60631 0.07701 0.91552 -0.40000
O 	O 	0.64673 0.80654 0.91756 -0.49400
C 	C 	0.75053 0.70891 0.88272 0.35700
O 	O 	0.83729 0.59324 0.91524 -0.43800
O 	O 	0.06532 0.63531 0.93158 -0.45100
C 	C 	0.12348 0.70232 0.90730 0.41200
O 	O 	0.06847 0.82862 0.09185 -0.47200
O 	O 	0.79915 0.05720 0.07935 -0.49100
C 	C 	0.67596 0.10749 0.10308 0.41300
O 	O 	0.58522 0.08018 0.07677 -0.42800
O 	O 	0.62717 0.80948 0.06705 -0.56900
C 	C 	0.69685 0.69098 0.09796 0.43300
O 	O 	0.81620 0.59641 0.07650 -0.52500
O 	O 	0.04577 0.63824 0.08107 -0.48000
C 	C 	0.09485 0.70773 0.11127 0.42100
Cr	Cr	0.93788 0.93832 0.00762 1.42900
Cr	Cr	0.62556 0.93722 0.99451 1.50300
Cr	Cr	0.93808 0.62501 0.00119 1.47700
O 	O 	0.83384 0.83352 0.00111 -0.84400
O 	O 	0.48621 0.91875 0.81122 -0.31600
H 	H 	0.43016 0.87098 0.80872 0.13400
O 	O 	0.20978 0.20249 0.83751 -0.26000
H 	H 	0.22548 0.20980 0.88877 0.16600
N 	N 	0.58500 0.91218 0.64369 -0.06900
O 	O 	0.47163 0.00385 0.61191 -0.01900
O 	O 	0.70265 0.90696 0.62813 -0.20000
O 	O 	0.32922 0.02804 0.25976 -0.16800
H 	H 	0.31488 0.04314 0.31177 0.15800
O 	O 	0.91133 0.73073 0.76977 -0.34100
H 	H 	0.87775 0.79948 0.73050 0.12800
N 	N 	0.73778 0.46033 0.83907 -0.01100
O 	O 	0.86713 0.37387 0.82175 -0.14700
O 	O 	0.68103 0.42880 0.89152 -0.11700
