data_crystal

_cell_length_a 11.04680
_cell_length_b 11.13281
_cell_length_c 18.75976
_cell_angle_alpha 90.17172
_cell_angle_beta  90.27084
_cell_angle_gamma 59.61132

_symmetry_space_group_name_	'P 1'
_symmetry_space_group_name_H-M	'P 1'

loop_
_symmetry_equiv_pos_as_xyz
  x,y,z

loop_
_atom_site_label
_atom_site_type_symbol
_atom_site_fract_x
_atom_site_fract_y
_atom_site_fract_z
_atom_site_charge
C 	C 	0.35742 0.77537 0.39785 0.41400
C 	C 	0.22404 0.40376 0.20455 -0.09700
C 	C 	0.22865 0.41151 0.27762 0.20700
C 	C 	0.38549 0.35471 0.38774 0.47600
C 	C 	0.85956 0.74435 0.37560 0.32500
C 	C 	0.84674 0.64336 0.33763 -0.17900
C 	C 	0.96488 0.53289 0.30514 0.25300
C 	C 	0.09660 0.52224 0.31155 -0.23800
C 	C 	0.36342 0.34320 0.31128 -0.24500
C 	C 	0.84427 0.34085 0.17984 -0.32700
C 	C 	0.91807 0.24357 0.23252 0.29400
C 	C 	0.61058 0.20672 0.15043 0.07300
C 	C 	0.87232 0.26259 0.30175 -0.02200
C 	C 	0.66661 0.47794 0.26747 -0.19600
C 	C 	0.71281 0.45611 0.19637 0.45900
C 	C 	0.71342 0.41518 0.39532 0.26600
C 	C 	0.06755 0.18110 0.25370 -0.35900
C 	C 	0.01893 0.19160 0.33049 0.25100
C 	C 	0.75374 0.38729 0.32138 0.08500
C 	C 	0.35178 0.83370 0.17622 -0.02100
C 	C 	0.45596 0.83824 0.21675 -0.04500
C 	C 	0.45465 0.83659 0.29189 0.10600
C 	C 	0.34630 0.33084 0.16374 -0.04500
C 	C 	0.23209 0.85014 0.28579 0.05400
C 	C 	0.25061 0.81875 0.21390 -0.00100
C 	C 	0.50289 0.93998 0.21208 0.42700
C 	C 	0.49467 0.94728 0.29224 -0.12100
C 	C 	0.34613 0.76681 0.60473 0.45000
C 	C 	0.34026 0.84189 0.32764 -0.09800
C 	C 	0.30244 0.30733 0.80930 -0.23200
C 	C 	0.37063 0.18907 0.76589 0.00200
C 	C 	0.37533 0.19885 0.69304 0.07600
C 	C 	0.22842 0.44881 0.70326 -0.12900
C 	C 	0.48676 0.27971 0.26894 0.38700
C 	C 	0.22355 0.43723 0.77710 0.36200
C 	C 	0.51830 0.07052 0.76935 0.22600
C 	C 	0.52021 0.07374 0.68897 -0.31000
C 	C 	0.31583 0.33018 0.66151 -0.11300
C 	C 	0.79987 0.34971 0.83913 -0.29000
C 	C 	0.36873 0.35052 0.59503 0.41100
C 	C 	0.79078 0.46185 0.80019 0.20800
C 	C 	0.77900 0.46624 0.72781 -0.12000
C 	C 	0.74520 0.27040 0.72933 -0.18100
C 	C 	0.75743 0.26534 0.80461 0.41800
C 	C 	0.48010 0.27375 0.19509 -0.06700
C 	C 	0.88471 0.52311 0.79686 -0.25600
C 	C 	0.86997 0.52731 0.71684 0.35700
C 	C 	0.77079 0.36372 0.69003 0.01200
C 	C 	0.29552 0.84799 0.82542 -0.00100
C 	C 	0.18088 0.91773 0.77931 -0.08500
C 	C 	0.19565 0.90061 0.70656 0.19200
C 	C 	0.75027 0.38362 0.61331 0.35100
C 	C 	0.44566 0.76121 0.72252 0.07100
C 	C 	0.42977 0.77317 0.79637 -0.00300
C 	C 	0.04526 0.91968 0.77737 0.35900
C 	C 	0.09754 0.63932 0.33455 0.21700
C 	C 	0.06163 0.90027 0.69736 -0.36800
C 	C 	0.32752 0.81773 0.67704 -0.18100
C 	C 	0.90827 0.31682 0.11054 0.51400
C 	C 	0.32662 0.29338 0.09249 0.39200
C 	C 	0.30844 0.89684 0.10504 0.39100
C 	C 	0.87805 0.31295 0.90650 0.47700
C 	C 	0.29492 0.28613 0.88476 0.48500
C 	C 	0.81190 0.05115 0.04608 -0.36900
C 	C 	0.27563 0.89322 0.89864 0.37600
C 	C 	0.82671 0.99774 0.11479 0.23800
C 	C 	0.98349 0.74718 0.37080 0.20700
C 	C 	0.72738 0.07471 0.16715 0.14000
C 	C 	0.60915 0.26642 0.08407 -0.10800
C 	C 	0.70517 0.18691 0.03134 0.15300
Cr	Cr	0.60174 0.60684 0.50584 1.54400
Cr	Cr	0.29150 0.60156 0.49507 1.53900
Cr	Cr	0.60678 0.29163 0.49913 1.53700
Cr	Cr	0.06244 0.06306 0.00824 1.47000
Cr	Cr	0.06295 0.37500 0.99892 1.49500
Cr	Cr	0.37455 0.06177 0.99247 1.49400
F 	F 	0.61430 0.23359 0.29932 -0.42500
F 	F 	0.79588 0.66209 0.69091 -0.40900
F 	F 	0.05115 0.80826 0.81241 -0.41200
F 	F 	0.74287 0.01543 0.23208 -0.38900
F 	F 	0.21365 0.64211 0.31855 -0.43600
F 	F 	0.75119 0.84219 0.41457 -0.40600
F 	F 	0.63278 0.54785 0.14497 -0.45400
F 	F 	0.04694 0.27693 0.37254 -0.48500
F 	F 	0.63834 0.87403 0.18618 -0.38800
F 	F 	0.14946 0.55254 0.81740 -0.44300
F 	F 	0.52850 0.95099 0.79602 -0.35900
F 	F 	0.99064 0.85458 0.40039 -0.32700
F 	F 	0.74015 0.17188 0.84262 -0.47600
H 	H 	0.74557 0.65141 0.33314 0.12600
H 	H 	0.59103 0.09799 0.79526 0.04600
H 	H 	0.51975 0.98352 0.66363 0.22000
H 	H 	0.96829 0.45766 0.68750 0.01600
H 	H 	0.52170 0.72649 0.83052 0.08100
H 	H 	0.95839 0.02009 0.79428 0.00100
H 	H 	0.88572 0.98902 0.00494 0.19000
H 	H 	0.07663 0.79870 0.67912 0.15500
H 	H 	0.98211 0.99249 0.66707 0.23100
H 	H 	0.91301 0.89455 0.12693 0.06600
H 	H 	0.12140 0.45541 0.17938 0.05300
H 	H 	0.95199 0.45982 0.27391 0.03800
H 	H 	0.11244 0.24732 0.24103 0.10400
H 	H 	0.04854 0.09114 0.35642 -0.03700
H 	H 	0.69462 0.23040 0.97876 0.01200
H 	H 	0.16664 0.81308 0.18697 0.06500
H 	H 	0.60246 0.09341 0.66879 0.11300
H 	H 	0.72140 0.19927 0.70222 0.09400
H 	H 	0.99263 0.44755 0.81428 0.17000
H 	H 	0.83668 0.62774 0.82213 0.18700
H 	H 	0.54980 0.70024 0.70119 0.07300
H 	H 	0.52536 0.37028 0.07069 0.09900
H 	H 	0.56585 0.56606 0.28087 0.12300
H 	H 	0.12817 0.07820 0.23036 0.06500
H 	H 	0.13447 0.87166 0.30941 0.10500
H 	H 	0.42831 0.03899 0.18523 -0.09900
H 	H 	0.59740 0.91316 0.31707 0.18100
H 	H 	0.40893 0.04903 0.31240 0.02700
H 	H 	0.17609 0.55212 0.68035 0.09700
O 	O 	0.74867 0.49752 0.42797 -0.37300
O 	O 	0.41747 0.17491 0.06783 -0.45900
O 	O 	0.37516 0.94638 0.07088 -0.41500
O 	O 	0.47647 0.72393 0.42945 -0.49700
O 	O 	0.16050 0.91967 0.92669 -0.42200
O 	O 	0.93314 0.19038 0.93605 -0.48100
O 	O 	0.90901 0.40321 0.92503 -0.44500
O 	O 	0.17959 0.36129 0.91848 -0.54700
O 	O 	0.39136 0.17084 0.90751 -0.49700
O 	O 	0.35095 0.94260 0.92226 -0.42900
O 	O 	0.16665 0.16661 0.99988 -0.82400
O 	O 	0.30017 0.47102 0.56712 -0.52700
O 	O 	0.26473 0.74414 0.41674 -0.40000
O 	O 	0.30944 0.47241 0.41822 -0.49500
O 	O 	0.50163 0.26053 0.41431 -0.43700
O 	O 	0.72792 0.30573 0.42895 -0.40700
O 	O 	0.73867 0.49602 0.58860 -0.40800
O 	O 	0.46719 0.72254 0.57835 -0.50900
O 	O 	0.25472 0.74264 0.57737 -0.47700
O 	O 	0.49163 0.25903 0.57494 -0.48800
O 	O 	0.71864 0.30434 0.57785 -0.49100
O 	O 	0.50001 0.50001 0.50002 -0.73900
O 	O 	0.18662 0.92375 0.08700 -0.44200
O 	O 	0.95735 0.19416 0.08466 -0.49400
O 	O 	0.93512 0.40728 0.08535 -0.40900
O 	O 	0.20380 0.36506 0.06709 -0.51500
