data_crystal

_cell_length_a 10.93909
_cell_length_b 11.00270
_cell_length_c 18.61756
_cell_angle_alpha 90.39209
_cell_angle_beta  90.18668
_cell_angle_gamma 59.83808

_symmetry_space_group_name_	'P 1'
_symmetry_space_group_name_H-M	'P 1'

loop_
_symmetry_equiv_pos_as_xyz
  x,y,z

loop_
_atom_site_label
_atom_site_type_symbol
_atom_site_fract_x
_atom_site_fract_y
_atom_site_fract_z
_atom_site_charge
O 	O 	0.50711 0.25628 0.58030 -0.37700
O 	O 	0.28083 0.52719 0.57794 -0.46700
C 	C 	0.23129 0.64802 0.60678 0.34400
O 	O 	0.26136 0.73899 0.58427 -0.37400
O 	O 	0.53259 0.69478 0.57437 -0.44700
C 	C 	0.62671 0.58542 0.60936 0.40500
O 	O 	0.74447 0.50375 0.57700 -0.41300
O 	O 	0.69852 0.27723 0.57162 -0.47200
C 	C 	0.62928 0.22579 0.60122 0.33400
O 	O 	0.49853 0.25692 0.41928 -0.45200
O 	O 	0.27288 0.52778 0.42868 -0.51200
C 	C 	0.21719 0.65157 0.40289 0.47600
O 	O 	0.25278 0.73963 0.42325 -0.47600
O 	O 	0.52464 0.69537 0.42510 -0.48100
C 	C 	0.61213 0.58405 0.38822 0.32500
O 	O 	0.73589 0.50439 0.41598 -0.40800
O 	O 	0.69056 0.27782 0.42235 -0.50000
C 	C 	0.61537 0.23110 0.39399 0.48300
Cr	Cr	0.39301 0.39805 0.50148 1.55300
Cr	Cr	0.39882 0.70798 0.50163 1.54000
Cr	Cr	0.70814 0.39394 0.49685 1.54000
O 	O 	0.49999 0.49999 0.49998 -0.75700
C 	C 	0.52734 0.73088 0.80276 -0.23300
H 	H 	0.47775 0.84689 0.80910 0.12900
H 	H 	0.47421 0.69884 0.84267 0.16300
C 	C 	0.50302 0.69624 0.72545 0.61100
H 	H 	0.68961 0.84422 0.77347 0.06800
C 	C 	0.74793 0.72791 0.76622 -0.11400
C 	C 	0.76359 0.49772 0.80190 -0.04800
C 	C 	0.68782 0.65974 0.81754 -0.00900
H 	H 	0.87991 0.45578 0.80546 0.09000
C 	C 	0.64782 0.61287 0.68457 -0.25000
C 	C 	0.73747 0.68822 0.68808 0.12900
C 	C 	0.73343 0.46974 0.72479 0.30800
H 	H 	0.67255 0.41393 0.72503 0.02700
H 	H 	0.86063 0.69122 0.77916 0.04000
H 	H 	0.84732 0.61063 0.67081 0.04600
C 	C 	0.67626 0.14987 0.66882 0.26000
C 	C 	0.69365 0.15789 0.82598 -0.19200
C 	C 	0.80644 0.10288 0.78176 0.16000
C 	C 	0.78975 0.13461 0.70444 -0.10900
H 	H 	0.91185 0.03113 0.80192 0.07800
H 	H 	0.86796 0.15143 0.67778 0.14000
H 	H 	0.58859 0.23211 0.80639 0.16500
C 	C 	0.16029 0.67137 0.67555 0.25800
C 	C 	0.18170 0.66954 0.83663 0.22500
C 	C 	0.16698 0.57676 0.79559 -0.02400
C 	C 	0.19914 0.56071 0.71904 -0.01800
H 	H 	0.13067 0.50972 0.81830 0.09900
H 	H 	0.26414 0.45370 0.69937 0.10600
C 	C 	0.60530 0.59913 0.31010 -0.12900
C 	C 	0.63519 0.65989 0.15895 -0.33700
C 	C 	0.70172 0.53038 0.18768 0.40000
C 	C 	0.70929 0.50873 0.26571 0.03700
H 	H 	0.56041 0.75138 0.18956 0.12500
H 	H 	0.50733 0.68370 0.28847 0.07300
C 	C 	0.63072 0.19611 0.31868 -0.18200
C 	C 	0.63682 0.20697 0.16244 0.19700
C 	C 	0.51700 0.25198 0.19962 0.01000
C 	C 	0.51840 0.27716 0.27643 0.10600
H 	H 	0.42051 0.36066 0.29948 0.04400
H 	H 	0.72941 0.10996 0.29828 0.16800
C 	C 	0.12911 0.68429 0.33918 -0.18700
C 	C 	0.99905 0.74976 0.19516 -0.28400
C 	C 	0.01428 0.84064 0.23786 0.14000
C 	C 	0.04696 0.81700 0.31513 0.13400
H 	H 	0.02207 0.92660 0.21433 0.03300
H 	H 	0.15318 0.59425 0.30549 0.15100
O 	O 	0.08919 0.82587 0.93232 -0.38500
O 	O 	0.81907 0.05396 0.93144 -0.45500
C 	C 	0.70411 0.09986 0.89699 0.47000
O 	O 	0.60707 0.07644 0.91646 -0.39500
O 	O 	0.64711 0.80655 0.91769 -0.53500
C 	C 	0.71863 0.68425 0.89096 0.39900
O 	O 	0.83708 0.59386 0.91530 -0.47400
O 	O 	0.06477 0.63608 0.93255 -0.42300
C 	C 	0.11637 0.70764 0.90684 0.32000
O 	O 	0.06825 0.82920 0.09294 -0.43400
O 	O 	0.79965 0.05704 0.08033 -0.41200
C 	C 	0.67214 0.11575 0.10067 0.33800
O 	O 	0.58613 0.07976 0.07708 -0.37000
O 	O 	0.62770 0.80963 0.06658 -0.59100
C 	C 	0.69173 0.68751 0.09420 0.53300
O 	O 	0.81614 0.59718 0.07592 -0.48400
O 	O 	0.04536 0.63917 0.08144 -0.41400
C 	C 	0.01547 0.75377 0.11715 0.43600
Cr	Cr	0.93795 0.93845 0.00894 1.44000
Cr	Cr	0.62618 0.93703 0.99475 1.51000
Cr	Cr	0.93779 0.62576 0.00141 1.49700
O 	O 	0.83398 0.83375 0.00170 -0.84900
F 	F 	0.86178 0.38110 0.69144 -0.44700
F 	F 	0.58688 0.11460 0.70081 -0.36000
F 	F 	0.23054 0.75102 0.80902 -0.35900
F 	F 	0.07219 0.80555 0.69834 -0.37000
F 	F 	0.79331 0.41799 0.14690 -0.41400
N 	N 	0.83904 0.39477 0.29313 0.01100
O 	O 	0.94246 0.41476 0.31135 -0.09900
O 	O 	0.85232 0.27213 0.30252 -0.05500
N 	N 	0.38809 0.27351 0.16699 -0.00200
O 	O 	0.35113 0.33026 0.10370 -0.07700
O 	O 	0.29691 0.25856 0.20506 -0.03100
F 	F 	0.74418 0.22047 0.19034 -0.38200
F 	F 	0.44157 0.61302 0.72799 -0.44600
N 	N 	0.01797 0.93570 0.35951 -0.03400
O 	O 	0.95791 0.95236 0.42185 -0.25500
O 	O 	0.06710 0.01700 0.34148 0.08900
N 	N 	0.95501 0.65685 0.22416 -0.04100
O 	O 	0.86077 0.70038 0.27507 -0.13800
O 	O 	0.00483 0.53072 0.19806 0.05300
F 	F 	0.40790 0.81982 0.69160 -0.43600
N 	N 	0.68651 0.80954 0.64011 -0.02000
O 	O 	0.55857 0.91562 0.64513 -0.06700
O 	O 	0.77021 0.81109 0.59108 -0.13100
N 	N 	0.72693 0.42283 0.85483 -0.00000
O 	O 	0.82473 0.33025 0.89646 -0.09400
O 	O 	0.59715 0.45106 0.86288 -0.08500
