data_crystal

_cell_length_a 11.01424
_cell_length_b 10.93495
_cell_length_c 18.75139
_cell_angle_alpha 90.08093
_cell_angle_beta  89.36904
_cell_angle_gamma 60.40470

_symmetry_space_group_name_	'P 1'
_symmetry_space_group_name_H-M	'P 1'

loop_
_symmetry_equiv_pos_as_xyz
  x,y,z

loop_
_atom_site_label
_atom_site_type_symbol
_atom_site_fract_x
_atom_site_fract_y
_atom_site_fract_z
_atom_site_charge
C 	C 	0.24389 0.64302 0.61200 0.41400
C 	C 	0.62680 0.56216 0.81346 -0.03600
C 	C 	0.68352 0.66569 0.81702 -0.08900
C 	C 	0.64493 0.62494 0.68385 -0.04100
C 	C 	0.79603 0.59103 0.69511 -0.05400
C 	C 	0.61143 0.53278 0.73442 -0.06900
C 	C 	0.68785 0.17186 0.82838 -0.12700
C 	C 	0.80182 0.13991 0.78286 0.06300
C 	C 	0.78590 0.15328 0.70913 -0.02000
C 	C 	0.54100 0.24906 0.72570 -0.01800
C 	C 	0.55521 0.24088 0.79911 0.02800
C 	C 	0.62907 0.59121 0.60908 0.30600
C 	C 	0.93875 0.00980 0.77564 -0.09800
C 	C 	0.92145 0.02352 0.69531 0.10400
C 	C 	0.65581 0.19544 0.67913 -0.07400
C 	C 	0.20756 0.65492 0.84051 -0.13900
C 	C 	0.23016 0.53479 0.80191 0.08500
C 	C 	0.23287 0.53466 0.72769 -0.00500
C 	C 	0.23103 0.75418 0.72921 -0.01000
C 	C 	0.23274 0.75202 0.80373 0.01100
C 	C 	0.16087 0.44758 0.80396 -0.16300
C 	C 	0.15256 0.45781 0.72259 0.10000
C 	C 	0.62653 0.23104 0.60383 0.40500
C 	C 	0.22076 0.65005 0.68965 -0.09900
C 	C 	0.67199 0.68507 0.17450 -0.15900
C 	C 	0.76901 0.56461 0.20867 0.04000
C 	C 	0.77274 0.55356 0.28071 0.02600
C 	C 	0.58949 0.79400 0.29206 -0.01200
C 	C 	0.58861 0.80536 0.21704 -0.00500
C 	C 	0.81320 0.41433 0.19523 -0.08800
C 	C 	0.81905 0.39972 0.27544 -0.08500
C 	C 	0.67338 0.66213 0.32365 -0.14600
C 	C 	0.68784 0.06795 0.18610 -0.13100
C 	C 	0.22124 0.64980 0.40193 0.44100
C 	C 	0.55569 0.13717 0.21677 0.07300
C 	C 	0.53877 0.17906 0.28608 0.07500
C 	C 	0.78812 0.06263 0.30283 0.10200
C 	C 	0.80531 0.01986 0.23056 0.13300
C 	C 	0.42662 0.26706 0.19427 -0.08600
C 	C 	0.40749 0.31309 0.27166 -0.09300
C 	C 	0.65215 0.15346 0.32854 -0.16000
C 	C 	0.13765 0.67203 0.18424 -0.13800
C 	C 	0.18479 0.75412 0.21582 0.05800
C 	C 	0.19743 0.75523 0.28736 0.03900
C 	C 	0.64534 0.62478 0.39381 0.41100
C 	C 	0.10506 0.59762 0.30188 0.01900
C 	C 	0.09012 0.59819 0.22767 0.01600
C 	C 	0.31412 0.76027 0.20036 -0.09100
C 	C 	0.32939 0.76115 0.28025 -0.08400
C 	C 	0.16505 0.67291 0.33150 -0.13700
C 	C 	0.70317 0.10255 0.89660 0.41000
C 	C 	0.71893 0.68507 0.89051 0.39900
C 	C 	0.12281 0.70357 0.90683 0.41500
C 	C 	0.70180 0.04037 0.11035 0.36000
C 	C 	0.69872 0.69334 0.09938 0.42800
C 	C 	0.61877 0.22494 0.39662 0.44600
C 	C 	0.09148 0.70897 0.11266 0.42900
C 	C 	0.57453 0.80711 0.78253 -0.03500
C 	C 	0.55046 0.78252 0.70430 -0.05800
C 	C 	0.81964 0.60508 0.77308 -0.04100
Cr	Cr	0.39296 0.39792 0.50224 1.53800
Cr	Cr	0.39834 0.70848 0.50125 1.52400
Cr	Cr	0.70867 0.39357 0.49646 1.52800
Cr	Cr	0.93765 0.93854 0.00761 1.43300
Cr	Cr	0.62533 0.93737 0.99452 1.50000
Cr	Cr	0.93794 0.62523 0.00119 1.48400
H 	H 	0.61249 0.88447 0.78437 0.01100
H 	H 	0.68603 0.42127 0.72248 0.04300
H 	H 	0.88938 0.49670 0.79237 0.01000
H 	H 	0.86992 0.48114 0.67874 0.01800
H 	H 	0.44001 0.29775 0.70454 0.06800
H 	H 	0.46354 0.27453 0.83252 0.03900
H 	H 	0.93680 0.91610 0.79721 -0.05000
H 	H 	0.02317 0.02826 0.79512 0.14700
H 	H 	0.99799 0.04682 0.66828 -0.01000
H 	H 	0.90904 0.93810 0.67029 -0.09900
H 	H 	0.23092 0.84194 0.70285 0.01700
H 	H 	0.47364 0.85331 0.81261 0.01600
H 	H 	0.23225 0.83904 0.83160 0.00900
H 	H 	0.06219 0.50019 0.83362 0.11100
H 	H 	0.23163 0.33950 0.82326 0.08500
H 	H 	0.05107 0.52803 0.69853 0.04600
H 	H 	0.51739 0.88361 0.32415 -0.00300
H 	H 	0.52057 0.90555 0.19262 -0.00600
H 	H 	0.91758 0.35663 0.16878 0.02100
H 	H 	0.72965 0.39953 0.17087 0.05000
H 	H 	0.74097 0.37273 0.29710 0.05800
H 	H 	0.43954 0.81504 0.69675 0.02800
H 	H 	0.92753 0.33563 0.29468 0.01500
H 	H 	0.90884 0.95349 0.20902 -0.12600
H 	H 	0.34453 0.24411 0.17544 0.06900
H 	H 	0.44898 0.33485 0.15852 0.05700
H 	H 	0.41841 0.40771 0.28083 0.05700
H 	H 	0.31552 0.31488 0.29769 0.06800
H 	H 	0.07698 0.53409 0.33499 0.05000
H 	H 	0.04229 0.54178 0.20456 0.06300
H 	H 	0.29192 0.86083 0.17489 0.02900
H 	H 	0.57432 0.85007 0.66908 0.02000
H 	H 	0.39682 0.66318 0.17382 0.04900
H 	H 	0.42090 0.66385 0.29992 0.05800
H 	H 	0.31561 0.86223 0.30135 0.02300
H 	H 	0.86859 0.67261 0.77899 0.00200
H 	H 	0.81914 0.66244 0.66253 0.01900
H 	H 	0.69886 0.46180 0.84039 0.03400
H 	H 	0.52401 0.60752 0.84152 0.03600
H 	H 	0.50504 0.54986 0.72503 0.04300
O 	O 	0.50738 0.25570 0.58144 -0.45700
O 	O 	0.52448 0.69581 0.42404 -0.54200
O 	O 	0.73639 0.50429 0.41479 -0.50500
O 	O 	0.69130 0.27729 0.42217 -0.52800
O 	O 	0.49999 0.49999 0.49998 -0.74900
O 	O 	0.08940 0.82569 0.93057 -0.46300
O 	O 	0.81846 0.05444 0.92985 -0.46600
O 	O 	0.60606 0.07715 0.91551 -0.41500
O 	O 	0.64655 0.80668 0.91757 -0.54600
O 	O 	0.83717 0.59341 0.91525 -0.50100
O 	O 	0.06520 0.63553 0.93157 -0.47100
O 	O 	0.28032 0.52735 0.57893 -0.51200
O 	O 	0.06826 0.82889 0.09184 -0.47500
O 	O 	0.79887 0.05741 0.07934 -0.46200
O 	O 	0.58493 0.08035 0.07678 -0.41200
O 	O 	0.62696 0.80965 0.06706 -0.58300
O 	O 	0.81604 0.59661 0.07651 -0.52900
O 	O 	0.04561 0.63850 0.08106 -0.48800
O 	O 	0.83364 0.83371 0.00110 -0.83900
O 	O 	0.26051 0.73959 0.58459 -0.49900
O 	O 	0.53230 0.69508 0.57382 -0.50400
O 	O 	0.74484 0.50350 0.57637 -0.46700
O 	O 	0.69912 0.27656 0.57196 -0.53100
O 	O 	0.49894 0.25650 0.41986 -0.47700
O 	O 	0.27250 0.52808 0.42915 -0.52600
O 	O 	0.25206 0.74038 0.42301 -0.50700
O 	O 	0.22821 0.32600 0.68797 -0.18300
C 	C 	0.14512 0.26164 0.68183 -0.04100
H 	H 	0.07584 0.30450 0.63512 0.06700
H 	H 	0.08356 0.27208 0.73125 0.07000
H 	H 	0.21485 0.14754 0.67188 0.07500
O 	O 	0.89890 0.00238 0.34928 -0.12100
C 	C 	0.98149 0.06703 0.34161 -0.31000
H 	H 	0.08091 0.00308 0.36989 0.19800
H 	H 	0.93009 0.17116 0.36829 0.07400
H 	H 	0.00793 0.07483 0.28489 0.19800
