data_crystal

_cell_length_a 10.85373
_cell_length_b 10.99010
_cell_length_c 18.86427
_cell_angle_alpha 90.64654
_cell_angle_beta  90.16983
_cell_angle_gamma 119.55654

_symmetry_space_group_name_	'P 1'
_symmetry_space_group_name_H-M	'P 1'

loop_
_symmetry_equiv_pos_as_xyz
  x,y,z

loop_
_atom_site_label
_atom_site_type_symbol
_atom_site_fract_x
_atom_site_fract_y
_atom_site_fract_z
_atom_site_charge
O 	O 	0.76650 0.25004 0.57979 -0.45100
O 	O 	0.79857 0.51678 0.57478 -0.49100
C 	C 	0.86345 0.64149 0.60243 0.43300
O 	O 	0.98400 0.73295 0.58109 -0.42600
O 	O 	0.21860 0.70089 0.57476 -0.51100
C 	C 	0.20366 0.59220 0.61018 0.26300
O 	O 	0.24939 0.51535 0.57994 -0.45100
O 	O 	0.98279 0.28090 0.57370 -0.44800
C 	C 	0.85814 0.22115 0.60065 0.45500
O 	O 	0.76660 0.25113 0.41926 -0.46500
O 	O 	0.79866 0.51779 0.42598 -0.48400
C 	C 	0.86240 0.63868 0.39826 0.38400
O 	O 	0.98410 0.73404 0.42057 -0.41300
O 	O 	0.21869 0.70190 0.42596 -0.55000
C 	C 	0.27429 0.63617 0.39745 0.40400
O 	O 	0.24949 0.51644 0.41942 -0.49900
O 	O 	0.98288 0.28191 0.42489 -0.46300
C 	C 	0.86183 0.22662 0.39646 0.44800
Cr	Cr	0.79166 0.39025 0.49993 1.54600
Cr	Cr	0.09852 0.70829 0.50054 1.47300
Cr	Cr	0.10977 0.40143 0.49948 1.47400
O 	O 	0.99998 0.49999 0.49998 -0.66900
C 	C 	0.18784 0.68719 0.73069 -0.04100
H 	H 	0.13326 0.73717 0.70807 0.00800
C 	C 	0.22668 0.70852 0.80318 0.00400
H 	H 	0.19861 0.77143 0.83676 0.00100
C 	C 	0.31085 0.65593 0.82996 -0.12300
C 	C 	0.32422 0.55561 0.78916 0.00800
H 	H 	0.37006 0.49669 0.81040 0.04400
C 	C 	0.28569 0.53312 0.71916 -0.02800
H 	H 	0.30797 0.46107 0.68982 0.05000
C 	C 	0.22765 0.60756 0.68727 -0.06900
C 	C 	0.79096 0.08120 0.81234 -0.05000
C 	C 	0.05420 0.17456 0.81692 -0.18000
C 	C 	0.17572 0.18970 0.78315 -0.05200
C 	C 	0.17092 0.16698 0.71002 0.04100
C 	C 	0.05129 0.14142 0.67108 -0.24400
C 	C 	0.93151 0.13358 0.70479 0.22300
C 	C 	0.92483 0.12847 0.77915 0.13500
H 	H 	0.26122 0.17376 0.68246 0.03900
H 	H 	0.06573 0.20596 0.87184 0.06300
C 	C 	0.68902 0.09781 0.69969 0.13300
C 	C 	0.66988 0.05799 0.77092 -0.07000
C 	C 	0.57735 0.11324 0.66771 -0.01900
C 	C 	0.43954 0.01966 0.68489 0.18600
C 	C 	0.41852 0.99176 0.75560 -0.34000
C 	C 	0.53119 0.01201 0.79876 0.29300
C 	C 	0.82337 0.14118 0.66689 -0.17000
H 	H 	0.05242 0.12462 0.61457 0.05200
H 	H 	0.50322 0.99977 0.85274 -0.09600
H 	H 	0.35302 0.01644 0.65461 0.01500
H 	H 	0.31797 0.96856 0.77802 0.08800
C 	C 	0.68719 0.59315 0.70086 0.06700
H 	H 	0.60145 0.51078 0.67089 0.04700
C 	C 	0.67163 0.60603 0.77381 -0.05400
H 	H 	0.57847 0.52860 0.79981 0.07200
C 	C 	0.78112 0.71375 0.81346 0.00000
C 	C 	0.90209 0.81264 0.77834 -0.12000
H 	H 	0.98769 0.89952 0.80648 0.10100
C 	C 	0.92000 0.79597 0.70736 0.24000
H 	H 	0.02000 0.87008 0.68425 -0.13500
C 	C 	0.81825 0.67856 0.66923 -0.18100
C 	C 	0.37471 0.59305 0.29217 -0.03000
H 	H 	0.38241 0.51069 0.31918 0.05400
C 	C 	0.38809 0.59861 0.22000 0.01800
H 	H 	0.41276 0.52410 0.19498 0.03200
C 	C 	0.37108 0.69764 0.18107 -0.15300
C 	C 	0.34746 0.79625 0.21633 0.02900
H 	H 	0.34234 0.87734 0.18645 0.00400
C 	C 	0.33378 0.79234 0.29017 -0.07400
C 	C 	0.33902 0.68285 0.32792 -0.08100
C 	C 	0.71331 0.11134 0.29308 0.02500
H 	H 	0.61978 0.09005 0.32260 0.07800
C 	C 	0.70345 0.09659 0.22063 0.03600
H 	H 	0.60024 0.05897 0.19638 0.06300
C 	C 	0.82420 0.12978 0.18016 -0.14500
C 	C 	0.95402 0.17042 0.21368 0.15500
H 	H 	0.04670 0.19091 0.18332 -0.09200
C 	C 	0.96476 0.18921 0.28693 0.14500
H 	H 	0.06795 0.23043 0.31193 -0.08400
C 	C 	0.84488 0.16527 0.32629 -0.12900
C 	C 	0.89520 0.78729 0.29715 -0.01100
H 	H 	0.96892 0.87864 0.32770 0.06200
C 	C 	0.89423 0.79773 0.22452 0.03500
H 	H 	0.96350 0.89851 0.20141 0.04500
C 	C 	0.80467 0.68087 0.18254 -0.12800
C 	C 	0.70779 0.55632 0.21469 0.04700
H 	H 	0.63056 0.46992 0.18234 0.03800
C 	C 	0.70731 0.54428 0.28843 -0.04700
C 	C 	0.81179 0.65833 0.32943 -0.05600
O 	O 	0.89511 0.80686 0.92043 -0.39500
O 	O 	0.87226 0.04697 0.92500 -0.39500
C 	C 	0.76990 0.04478 0.88770 0.33900
O 	O 	0.69143 0.08506 0.91855 -0.38200
O 	O 	0.45149 0.82246 0.92525 -0.53700
C 	C 	0.38755 0.69607 0.89848 0.39700
O 	O 	0.41333 0.60336 0.92044 -0.47700
O 	O 	0.67611 0.62625 0.92675 -0.43900
C 	C 	0.77269 0.73080 0.89036 0.26400
O 	O 	0.89535 0.80987 0.08095 -0.48200
O 	O 	0.87249 0.04976 0.07380 -0.47600
C 	C 	0.80352 0.09986 0.10481 0.46300
O 	O 	0.69168 0.08807 0.07907 -0.47300
O 	O 	0.45172 0.82525 0.07405 -0.56600
C 	C 	0.40335 0.70773 0.10589 0.41400
O 	O 	0.41358 0.60637 0.08096 -0.50500
O 	O 	0.67634 0.62904 0.07555 -0.53700
C 	C 	0.79499 0.70143 0.10722 0.43500
Cr	Cr	0.87479 0.92589 0.00007 1.49900
Cr	Cr	0.57412 0.94867 0.99930 1.52200
Cr	Cr	0.55142 0.62532 0.00092 1.52200
O 	O 	0.66678 0.83329 0.00009 -0.81200
N 	N 	0.59921 0.25236 0.66293 0.00700
O 	O 	0.69965 0.35201 0.70057 -0.08400
O 	O 	0.52020 0.27923 0.62113 -0.14600
C 	C 	0.31390 0.90357 0.32442 0.28700
O 	O 	0.37052 0.95470 0.38154 -0.31600
O 	O 	0.23506 0.95438 0.28951 -0.43000
H 	H 	0.22719 0.02876 0.31820 0.20300
C 	C 	0.59509 0.41307 0.31944 0.28800
O 	O 	0.54245 0.41530 0.37634 -0.25800
O 	O 	0.54417 0.28733 0.28149 -0.31000
H 	H 	0.46768 0.20564 0.30795 0.17500
C 	C 	0.30626 0.22744 0.82472 0.26600
O 	O 	0.41704 0.25825 0.79436 -0.22100
O 	O 	0.30349 0.22918 0.89888 -0.32600
H 	H 	0.39931 0.25745 0.92101 0.15300
