data_crystal

_cell_length_a 22.06639
_cell_length_b 7.19801
_cell_length_c 14.91866
_cell_angle_alpha 89.43047
_cell_angle_beta  107.05974
_cell_angle_gamma 89.80372

_symmetry_space_group_name_	'P 1'
_symmetry_space_group_name_H-M	'P 1'

loop_
_symmetry_equiv_pos_as_xyz
  x,y,z

loop_
_atom_site_label
_atom_site_type_symbol
_atom_site_fract_x
_atom_site_fract_y
_atom_site_fract_z
_atom_site_charge
O 	O 	0.58477 0.50577 0.00209 -0.46700
O 	O 	0.41523 0.00577 0.99791 -0.46900
O 	O 	0.46706 0.17334 0.86195 -0.47200
O 	O 	0.53294 0.67334 0.13805 -0.46900
C 	C 	0.45501 0.34540 0.82599 0.32700
C 	C 	0.54510 0.84309 0.17413 0.32400
O 	O 	0.58751 0.17589 0.99321 -0.47100
O 	O 	0.41249 0.67589 0.00679 -0.47300
O 	O 	0.53654 0.00815 0.13010 -0.46200
O 	O 	0.46346 0.50815 0.86990 -0.46200
C 	C 	0.61342 0.34432 0.00177 0.31500
C 	C 	0.38659 0.84496 0.99840 0.31800
O 	O 	0.48314 0.34004 0.04476 -0.61800
O 	O 	0.51686 0.84004 0.95524 -0.61700
V 	V 	0.50313 0.06419 0.99170 1.79200
V 	V 	0.49687 0.56419 0.00830 1.79300
C 	C 	0.21783 0.72907 0.00932 0.14300
C 	C 	0.78273 0.23018 0.99211 0.13800
C 	C 	0.18238 0.88443 0.00946 -0.21400
C 	C 	0.81762 0.38562 0.99065 -0.20600
H 	H 	0.20626 0.01714 0.02256 0.09800
H 	H 	0.79323 0.51853 0.97621 0.09500
C 	C 	0.28777 0.74123 0.02641 -0.08800
C 	C 	0.71270 0.24242 0.97413 -0.08500
C 	C 	0.31712 0.85810 0.98133 -0.02000
C 	C 	0.68291 0.35605 0.01940 -0.02000
H 	H 	0.31636 0.63809 0.07435 0.06300
H 	H 	0.68455 0.14173 0.92578 0.06300
C 	C 	0.92767 0.89339 0.72351 -0.08300
C 	C 	0.07232 0.37880 0.27609 -0.08300
C 	C 	0.57407 0.84530 0.27564 -0.08500
C 	C 	0.42603 0.35850 0.72471 -0.08600
C 	C 	0.93618 0.96300 0.56942 -0.05300
C 	C 	0.06285 0.29286 0.42777 -0.04900
C 	C 	0.96406 0.94544 0.66559 0.01600
C 	C 	0.03515 0.32402 0.33238 0.01700
C 	C 	0.86307 0.85915 0.68529 -0.00400
C 	C 	0.13744 0.40242 0.31503 -0.00300
C 	C 	0.83260 0.88127 0.58778 0.00300
C 	C 	0.16761 0.36734 0.41161 0.00400
C 	C 	0.87051 0.93408 0.52914 -0.00900
C 	C 	0.12896 0.31161 0.46868 -0.01100
C 	C 	0.76576 0.85638 0.54765 -0.01200
C 	C 	0.23475 0.38299 0.45229 -0.01200
C 	C 	0.73750 0.88429 0.44918 0.03100
C 	C 	0.26250 0.34489 0.54997 0.03300
C 	C 	0.77692 0.93560 0.39382 -0.08400
C 	C 	0.22247 0.28937 0.60369 -0.08600
C 	C 	0.84217 0.96006 0.43196 0.05100
C 	C 	0.15696 0.27283 0.56488 0.05600
C 	C 	0.72608 0.80545 0.60301 -0.02200
C 	C 	0.27524 0.43410 0.39818 -0.02100
C 	C 	0.66141 0.78234 0.56404 -0.06100
C 	C 	0.34020 0.44839 0.43775 -0.06100
C 	C 	0.63324 0.80726 0.46832 0.04800
C 	C 	0.36785 0.41473 0.53294 0.04800
C 	C 	0.67051 0.85919 0.40912 -0.03100
C 	C 	0.32969 0.36290 0.59085 -0.03200
C 	C 	0.56787 0.77700 0.43121 -0.07400
C 	C 	0.43367 0.43534 0.57084 -0.07400
C 	C 	0.53866 0.79355 0.33529 0.02600
C 	C 	0.46249 0.40867 0.66635 0.02700
C 	C 	0.63900 0.87988 0.31189 0.00900
C 	C 	0.36058 0.33476 0.68773 0.01100
H 	H 	0.48857 0.76395 0.30735 0.03000
H 	H 	0.51310 0.42923 0.69498 0.03100
H 	H 	0.63317 0.74249 0.60951 0.04600
H 	H 	0.36911 0.48816 0.39322 0.04600
H 	H 	0.96659 0.00333 0.52755 0.04000
H 	H 	0.03188 0.25072 0.46845 0.03700
H 	H 	0.01407 0.97454 0.69513 0.02700
H 	H 	0.98466 0.30329 0.30216 0.02600
H 	H 	0.83800 0.82245 0.73475 0.03600
H 	H 	0.16296 0.44335 0.26675 0.03600
H 	H 	0.75817 0.95927 0.31956 0.04900
H 	H 	0.24098 0.25503 0.67696 0.04900
H 	H 	0.74312 0.78109 0.67742 0.03600
H 	H 	0.25868 0.46424 0.32425 0.03500
H 	H 	0.53951 0.73642 0.47636 0.04800
H 	H 	0.46276 0.47519 0.52664 0.04800
O 	O 	0.03645 0.23307 0.13013 -0.46400
O 	O 	0.96355 0.73307 0.86987 -0.46500
O 	O 	0.91247 0.56057 0.00679 -0.48900
O 	O 	0.08753 0.06057 0.99321 -0.49400
C 	C 	0.88665 0.39157 0.00047 0.36700
C 	C 	0.11337 0.89109 0.99969 0.37400
O 	O 	0.03292 0.56294 0.13805 -0.47400
O 	O 	0.96708 0.06294 0.86195 -0.47000
O 	O 	0.08479 0.73050 0.00209 -0.48000
O 	O 	0.91521 0.23050 0.99791 -0.47800
C 	C 	0.04460 0.39314 0.17454 0.34000
C 	C 	0.95531 0.89559 0.82535 0.33800
O 	O 	0.01682 0.39617 0.95526 -0.62600
O 	O 	0.98318 0.89617 0.04474 -0.62800
V 	V 	0.99688 0.67209 0.00830 1.79100
V 	V 	0.00312 0.17209 0.99170 1.79100
C 	C 	0.19051 0.53560 0.99822 -0.22800
H 	H 	0.22720 0.43043 0.99689 0.07500
H 	H 	0.17233 0.49970 0.05814 0.09400
H 	H 	0.15218 0.52533 0.93090 0.09400
C 	C 	0.81085 0.03662 0.00624 -0.22000
H 	H 	0.77458 0.93197 0.00924 0.07100
H 	H 	0.82914 0.99929 0.94688 0.09200
H 	H 	0.84922 0.02717 0.07372 0.09200
C 	C 	0.28099 0.99387 0.90626 -0.13800
H 	H 	0.31007 0.03624 0.86014 0.06400
H 	H 	0.23726 0.92968 0.86051 0.05900
H 	H 	0.26908 0.12146 0.93871 0.05800
C 	C 	0.71872 0.48764 0.09487 -0.14200
H 	H 	0.68911 0.53027 0.13997 0.06700
H 	H 	0.76192 0.41951 0.14148 0.06000
H 	H 	0.73155 0.61554 0.06282 0.06000
C 	C 	0.88044 0.01640 0.36700 -0.17900
H 	H 	0.90304 0.15299 0.38831 0.06500
H 	H 	0.91752 0.91006 0.36964 0.06500
H 	H 	0.85076 0.03007 0.29286 0.06400
C 	C 	0.11804 0.21087 0.62795 -0.18700
H 	H 	0.08231 0.31916 0.62904 0.06900
H 	H 	0.09377 0.07856 0.60204 0.06600
H 	H 	0.14757 0.18651 0.70147 0.06500
H 	H 	0.66337 0.91566 0.26138 0.03100
H 	H 	0.33546 0.30016 0.73748 0.03000
