data_crystal

_cell_length_a 19.56947
_cell_length_b 11.32743
_cell_length_c 18.70896
_cell_angle_alpha 89.94943
_cell_angle_beta  89.86937
_cell_angle_gamma 90.08606

_symmetry_space_group_name_	'P 1'
_symmetry_space_group_name_H-M	'P 1'

loop_
_symmetry_equiv_pos_as_xyz
  x,y,z

loop_
_atom_site_label
_atom_site_type_symbol
_atom_site_fract_x
_atom_site_fract_y
_atom_site_fract_z
_atom_site_charge
C 	C 	0.27346 0.03991 0.85525 0.38500
C 	C 	0.72618 0.04011 0.14438 0.38500
C 	C 	0.77346 0.53991 0.85525 0.34600
C 	C 	0.22618 0.54011 0.14438 0.34200
C 	C 	0.51727 0.72232 0.96602 0.12600
C 	C 	0.48012 0.73338 0.03675 0.11600
C 	C 	0.01727 0.22232 0.96602 0.12100
C 	C 	0.98012 0.23338 0.03674 0.12100
C 	C 	0.30267 0.50393 0.03819 -0.06900
C 	C 	0.68963 0.51827 0.95810 -0.06000
C 	C 	0.80267 0.00394 0.03819 0.01700
C 	C 	0.18963 0.01827 0.95810 -0.02500
C 	C 	0.29955 0.49739 0.95613 -0.03000
C 	C 	0.69024 0.51285 0.03991 -0.03400
C 	C 	0.79955 0.99740 0.95613 -0.09800
C 	C 	0.19024 0.01286 0.03991 -0.01100
C 	C 	0.17310 0.53339 0.02535 -0.05900
C 	C 	0.82086 0.51221 0.97496 -0.05500
C 	C 	0.67310 0.03339 0.02535 -0.01500
C 	C 	0.32086 0.01220 0.97496 -0.02300
C 	C 	0.24999 0.69848 0.05370 -0.05300
C 	C 	0.76016 0.69626 0.94564 -0.05000
C 	C 	0.74998 0.19848 0.05370 -0.03900
C 	C 	0.26016 0.19626 0.94564 -0.04700
C 	C 	0.23881 0.56793 0.06775 -0.05100
C 	C 	0.76003 0.56529 0.93151 -0.05700
C 	C 	0.73881 0.06793 0.06775 -0.08600
C 	C 	0.26003 0.06528 0.93151 -0.07500
C 	C 	0.25300 0.60051 0.92886 -0.05900
C 	C 	0.74695 0.59778 0.07060 -0.05700
C 	C 	0.75300 0.10050 0.92886 -0.02700
C 	C 	0.24695 0.09778 0.07060 -0.06500
C 	C 	0.17896 0.56323 0.94529 -0.04900
C 	C 	0.81453 0.53251 0.05698 -0.05400
C 	C 	0.67896 0.06322 0.94529 -0.03600
C 	C 	0.31453 0.03251 0.05698 -0.02500
C 	C 	0.26810 0.71289 0.97340 -0.05600
C 	C 	0.75353 0.71385 0.02675 -0.05700
C 	C 	0.76810 0.21290 0.97340 -0.07100
C 	C 	0.25353 0.21385 0.02675 -0.05700
C 	C 	0.49755 0.69879 0.45988 -0.04900
C 	C 	0.50224 0.69886 0.54021 -0.04900
C 	C 	0.99755 0.19879 0.45988 -0.05100
C 	C 	0.00225 0.19886 0.54021 -0.05000
C 	C 	0.44568 0.81761 0.86253 0.30200
C 	C 	0.55816 0.81708 0.13780 0.27900
C 	C 	0.94568 0.31761 0.86253 0.30000
C 	C 	0.05816 0.31708 0.13780 0.28300
C 	C 	0.56693 0.88803 0.47232 -0.06100
C 	C 	0.43311 0.88823 0.52756 -0.06100
C 	C 	0.06693 0.38803 0.47232 -0.06200
C 	C 	0.93311 0.38823 0.52756 -0.06200
C 	C 	0.44542 0.89754 0.44608 -0.04700
C 	C 	0.55458 0.89769 0.55377 -0.04800
C 	C 	0.94542 0.39754 0.44608 -0.04800
C 	C 	0.05458 0.39769 0.55377 -0.04800
C 	C 	0.50911 0.82682 0.43040 -0.05900
C 	C 	0.49081 0.82696 0.56955 -0.05900
C 	C 	0.00911 0.32682 0.43040 -0.05700
C 	C 	0.99081 0.32696 0.56955 -0.05700
C 	C 	0.18231 0.65750 0.45871 -0.04900
C 	C 	0.81777 0.65777 0.54124 -0.04900
C 	C 	0.68231 0.15750 0.45871 -0.04800
C 	C 	0.31777 0.15776 0.54124 -0.04800
C 	C 	0.18124 0.65221 0.53921 -0.04900
C 	C 	0.81881 0.65243 0.46075 -0.04900
C 	C 	0.68124 0.15220 0.53921 -0.05500
C 	C 	0.31881 0.15243 0.46075 -0.05400
C 	C 	0.24182 0.45928 0.47346 -0.06200
C 	C 	0.75811 0.45942 0.52683 -0.06100
C 	C 	0.74182 0.95928 0.47347 -0.08200
C 	C 	0.25811 0.95942 0.52683 -0.08200
C 	C 	0.30802 0.63370 0.44246 -0.04700
C 	C 	0.69202 0.63385 0.55744 -0.04700
C 	C 	0.80802 0.13369 0.44246 -0.04700
C 	C 	0.19202 0.13385 0.55744 -0.04700
C 	C 	0.23991 0.57473 0.42951 -0.06000
C 	C 	0.76006 0.57499 0.57054 -0.06100
C 	C 	0.73991 0.07472 0.42951 -0.04500
C 	C 	0.26006 0.07499 0.57054 -0.04600
C 	C 	0.25202 0.60713 0.56751 -0.05900
C 	C 	0.74801 0.60694 0.43247 -0.05900
C 	C 	0.75202 0.10713 0.56751 -0.03300
C 	C 	0.24801 0.10694 0.43248 -0.03400
C 	C 	0.25633 0.47604 0.55372 -0.04800
C 	C 	0.74374 0.47587 0.44651 -0.04800
C 	C 	0.75633 0.97603 0.55372 -0.07200
C 	C 	0.24373 0.97588 0.44651 -0.07200
C 	C 	0.26055 0.63555 0.85234 0.34400
C 	C 	0.73915 0.63597 0.14711 0.34200
C 	C 	0.76055 0.13555 0.85234 0.34000
C 	C 	0.23915 0.13598 0.14711 0.34900
C 	C 	0.31034 0.66287 0.52295 -0.06300
C 	C 	0.68964 0.66246 0.47684 -0.06200
C 	C 	0.81034 0.16287 0.52295 -0.06500
C 	C 	0.18964 0.16246 0.47684 -0.06500
C 	C 	0.27332 0.04395 0.64612 0.37800
C 	C 	0.72662 0.04368 0.35395 0.37600
C 	C 	0.77332 0.54395 0.64612 0.34900
C 	C 	0.22662 0.54368 0.35394 0.34800
C 	C 	0.46981 0.82279 0.64606 0.34500
C 	C 	0.53016 0.82267 0.35392 0.34600
C 	C 	0.96981 0.32279 0.64606 0.34400
C 	C 	0.03016 0.32267 0.35392 0.34500
C 	C 	0.26101 0.64091 0.64354 0.34500
C 	C 	0.73903 0.64062 0.35641 0.34600
C 	C 	0.76101 0.14091 0.64354 0.34200
C 	C 	0.23903 0.14063 0.35641 0.34300
C 	C 	0.49047 0.92355 0.03329 -0.04200
C 	C 	0.52831 0.91214 0.96027 0.01000
C 	C 	0.99047 0.42355 0.03329 -0.00200
C 	C 	0.02831 0.41215 0.96028 -0.00000
C 	C 	0.43618 0.83344 0.00829 -0.04600
C 	C 	0.57193 0.80911 0.99076 -0.06100
C 	C 	0.93618 0.33343 0.00829 -0.05600
C 	C 	0.07193 0.30911 0.99076 -0.05500
C 	C 	0.47427 0.82263 0.93576 -0.09200
C 	C 	0.53331 0.82142 0.06308 -0.07100
C 	C 	0.97427 0.32263 0.93576 -0.08200
C 	C 	0.03331 0.32142 0.06308 -0.07900
Cr	Cr	0.22962 0.83604 0.74911 1.51400
Cr	Cr	0.77038 0.83604 0.25089 1.51300
Cr	Cr	0.72962 0.33604 0.74911 1.51400
Cr	Cr	0.27038 0.33604 0.25089 1.51400
Cr	Cr	0.38763 0.99068 0.75073 1.50400
Cr	Cr	0.61237 0.99068 0.24927 1.50300
Cr	Cr	0.88763 0.49068 0.75073 1.51200
Cr	Cr	0.11237 0.49068 0.24927 1.51200
Cr	Cr	0.38602 0.67659 0.74921 1.51500
Cr	Cr	0.61398 0.67659 0.25079 1.51400
Cr	Cr	0.88602 0.17659 0.74921 1.51600
Cr	Cr	0.11398 0.17659 0.25079 1.51500
H 	H 	0.38547 0.83057 0.03227 0.03700
H 	H 	0.62482 0.79017 0.97594 0.04300
H 	H 	0.88546 0.33057 0.03227 0.04300
H 	H 	0.12482 0.29018 0.97594 0.04200
H 	H 	0.20151 0.74375 0.06685 0.03900
H 	H 	0.80929 0.73460 0.92621 0.04100
H 	H 	0.70151 0.24375 0.06685 0.03800
H 	H 	0.30929 0.23460 0.92621 0.04300
H 	H 	0.29112 0.73489 0.08813 0.03800
H 	H 	0.71835 0.74062 0.91597 0.03400
H 	H 	0.79112 0.23489 0.08812 0.03600
H 	H 	0.21835 0.24062 0.91597 0.03500
H 	H 	0.32313 0.72831 0.96643 0.04300
H 	H 	0.71301 0.77560 0.04146 0.03500
H 	H 	0.82312 0.22833 0.96642 0.04800
H 	H 	0.21301 0.27559 0.04146 0.03600
H 	H 	0.23969 0.78818 0.95205 0.04100
H 	H 	0.80315 0.75064 0.04231 0.04400
H 	H 	0.73967 0.28817 0.95205 0.04500
H 	H 	0.30316 0.25064 0.04231 0.04500
H 	H 	0.62684 0.07867 0.04649 0.04300
H 	H 	0.37045 0.05061 0.95710 0.04700
H 	H 	0.12684 0.57867 0.04649 0.04500
H 	H 	0.87045 0.55063 0.95710 0.04600
H 	H 	0.14269 0.63580 0.93236 0.04100
H 	H 	0.85914 0.58437 0.07637 0.04000
H 	H 	0.64268 0.13579 0.93236 0.04500
H 	H 	0.35914 0.08436 0.07637 0.04000
H 	H 	0.53317 0.63050 0.44034 0.04000
H 	H 	0.46662 0.63041 0.55985 0.04000
H 	H 	0.03317 0.13050 0.44034 0.04400
H 	H 	0.96662 0.13041 0.55985 0.04300
H 	H 	0.44666 0.66763 0.44291 0.03600
H 	H 	0.55314 0.66784 0.55719 0.03600
H 	H 	0.94666 0.16763 0.44292 0.03900
H 	H 	0.05314 0.16784 0.55719 0.03800
H 	H 	0.60816 0.82914 0.46318 0.03800
H 	H 	0.39170 0.82967 0.53697 0.03800
H 	H 	0.10816 0.32914 0.46318 0.03900
H 	H 	0.89170 0.32966 0.53696 0.03900
H 	H 	0.59898 0.86350 0.58424 0.02700
H 	H 	0.40096 0.86316 0.41574 0.02700
H 	H 	0.09898 0.36350 0.58425 0.03100
H 	H 	0.90096 0.36316 0.41574 0.03100
H 	H 	0.47983 0.00842 0.06069 0.05700
H 	H 	0.54536 0.98813 0.92747 0.01700
H 	H 	0.97982 0.50842 0.06070 0.02700
H 	H 	0.04536 0.48813 0.92747 0.02800
H 	H 	0.45412 0.99090 0.43019 0.02400
H 	H 	0.54594 0.99107 0.56942 0.02500
H 	H 	0.95412 0.49090 0.43019 0.03200
H 	H 	0.04594 0.49108 0.56942 0.03200
H 	H 	0.42267 0.97643 0.54956 0.03400
H 	H 	0.57766 0.97607 0.45012 0.03400
H 	H 	0.92267 0.47643 0.54956 0.04200
H 	H 	0.07766 0.47607 0.45012 0.04200
H 	H 	0.13000 0.63781 0.44023 0.03700
H 	H 	0.87004 0.63793 0.55971 0.03700
H 	H 	0.63000 0.13781 0.44023 0.04600
H 	H 	0.37005 0.13793 0.55971 0.04600
H 	H 	0.19243 0.74868 0.44048 0.03300
H 	H 	0.80784 0.74896 0.55937 0.03400
H 	H 	0.69243 0.24867 0.44048 0.03500
H 	H 	0.30784 0.24896 0.55937 0.03500
H 	H 	0.16476 0.73982 0.55831 0.03600
H 	H 	0.83525 0.74016 0.44155 0.03600
H 	H 	0.66477 0.23982 0.55831 0.04100
H 	H 	0.33526 0.24015 0.44155 0.04100
H 	H 	0.14086 0.59117 0.55764 0.03500
H 	H 	0.85923 0.59162 0.44240 0.03500
H 	H 	0.64086 0.09117 0.55764 0.04800
H 	H 	0.35923 0.09161 0.44240 0.04800
H 	H 	0.69078 0.92927 0.46925 0.03800
H 	H 	0.30913 0.92954 0.53135 0.03800
H 	H 	0.19077 0.42928 0.46924 0.03900
H 	H 	0.80913 0.42954 0.53136 0.03900
H 	H 	0.71879 0.92667 0.58697 0.02900
H 	H 	0.28135 0.92665 0.41344 0.02900
H 	H 	0.21879 0.42667 0.58697 0.03000
H 	H 	0.78136 0.42665 0.41344 0.03000
H 	H 	0.34986 0.57192 0.42787 0.03400
H 	H 	0.65007 0.57219 0.57229 0.03400
H 	H 	0.84986 0.07192 0.42787 0.04200
H 	H 	0.15008 0.07219 0.57229 0.04200
H 	H 	0.31341 0.71482 0.40946 0.02900
H 	H 	0.68678 0.71521 0.59013 0.02900
H 	H 	0.81342 0.21480 0.40946 0.03100
H 	H 	0.18678 0.21521 0.59013 0.03100
H 	H 	0.30011 0.75436 0.52739 0.03900
H 	H 	0.69971 0.75398 0.47187 0.03900
H 	H 	0.80010 0.25436 0.52738 0.03900
H 	H 	0.19972 0.25398 0.47188 0.03900
H 	H 	0.36036 0.63902 0.54510 0.04300
H 	H 	0.63962 0.63799 0.45481 0.04200
H 	H 	0.86036 0.13902 0.54510 0.04700
H 	H 	0.13962 0.13800 0.45482 0.04700
H 	H 	0.27839 0.39629 0.45049 0.04300
H 	H 	0.72143 0.39643 0.54985 0.04300
H 	H 	0.77838 0.89629 0.45049 0.04300
H 	H 	0.22143 0.89642 0.54985 0.04300
H 	H 	0.30845 0.44408 0.56710 0.03400
H 	H 	0.69165 0.44359 0.43310 0.03400
H 	H 	0.80845 0.94407 0.56710 0.03000
H 	H 	0.19165 0.94360 0.43310 0.02900
H 	H 	0.31202 0.41954 0.06307 0.04600
H 	H 	0.67455 0.43184 0.93573 0.04400
H 	H 	0.81202 0.91954 0.06307 0.01100
H 	H 	0.17455 0.93184 0.93573 0.02000
H 	H 	0.34717 0.55538 0.05484 0.05600
H 	H 	0.64986 0.57985 0.93953 0.05500
H 	H 	0.84717 0.05538 0.05484 0.04400
H 	H 	0.14986 0.07986 0.93953 0.05000
H 	H 	0.27351 0.41574 0.94126 0.03400
H 	H 	0.70684 0.42365 0.05324 0.03400
H 	H 	0.77352 0.91574 0.94126 0.04400
H 	H 	0.20684 0.92365 0.05324 0.01100
H 	H 	0.66487 0.93975 0.03358 0.01200
H 	H 	0.32231 0.91921 0.96132 0.01300
H 	H 	0.16487 0.43975 0.03358 0.03800
H 	H 	0.82232 0.41922 0.96132 0.03500
H 	H 	0.66476 0.98530 0.91234 0.01700
H 	H 	0.31504 0.94833 0.08730 0.01200
H 	H 	0.16476 0.48532 0.91234 0.03500
H 	H 	0.81504 0.44833 0.08730 0.03500
O 	O 	0.21413 0.70857 0.82989 -0.46800
O 	O 	0.78587 0.70857 0.17011 -0.46700
O 	O 	0.71413 0.20857 0.82989 -0.46200
O 	O 	0.28587 0.20857 0.17011 -0.46400
O 	O 	0.44636 0.91999 0.67523 -0.51100
O 	O 	0.55364 0.91999 0.32477 -0.51200
O 	O 	0.94636 0.41999 0.67523 -0.50400
O 	O 	0.05364 0.41999 0.32477 -0.50500
O 	O 	0.45717 0.71730 0.66838 -0.46800
O 	O 	0.54283 0.71730 0.33162 -0.46800
O 	O 	0.95717 0.21730 0.66838 -0.46500
O 	O 	0.04283 0.21730 0.33162 -0.46500
O 	O 	0.32087 0.62489 0.67313 -0.50200
O 	O 	0.67913 0.62489 0.32687 -0.50200
O 	O 	0.82087 0.12489 0.67313 -0.49500
O 	O 	0.17913 0.12489 0.32687 -0.49600
O 	O 	0.33443 0.83443 0.74968 -0.72500
O 	O 	0.66557 0.83443 0.25032 -0.72500
O 	O 	0.83443 0.33443 0.74968 -0.72200
O 	O 	0.16557 0.33443 0.25032 -0.72200
O 	O 	0.23605 0.95915 0.82527 -0.53300
O 	O 	0.76395 0.95915 0.17473 -0.53200
O 	O 	0.73605 0.45915 0.82527 -0.50400
O 	O 	0.26395 0.45915 0.17473 -0.50200
O 	O 	0.33210 0.07665 0.83231 -0.46500
O 	O 	0.66790 0.07665 0.16769 -0.46700
O 	O 	0.83210 0.57665 0.83231 -0.47000
O 	O 	0.16790 0.57665 0.16769 -0.47100
O 	O 	0.44650 0.91862 0.82624 -0.48600
O 	O 	0.55350 0.91862 0.17376 -0.47900
O 	O 	0.94650 0.41862 0.82624 -0.47800
O 	O 	0.05350 0.41862 0.17376 -0.47100
O 	O 	0.45731 0.71583 0.83128 -0.41200
O 	O 	0.54269 0.71583 0.16872 -0.40300
O 	O 	0.95731 0.21583 0.83128 -0.40700
O 	O 	0.04269 0.21583 0.16872 -0.40100
O 	O 	0.32100 0.62352 0.82413 -0.50100
O 	O 	0.67900 0.62352 0.17587 -0.50100
O 	O 	0.82100 0.12352 0.82413 -0.49100
O 	O 	0.17900 0.12352 0.17587 -0.49900
O 	O 	0.21399 0.71004 0.66700 -0.47000
O 	O 	0.78601 0.71004 0.33300 -0.47100
O 	O 	0.71399 0.21004 0.66700 -0.46400
O 	O 	0.28601 0.21004 0.33300 -0.46500
O 	O 	0.23592 0.96052 0.67426 -0.53400
O 	O 	0.76408 0.96052 0.32574 -0.53200
O 	O 	0.73592 0.46052 0.67426 -0.50700
O 	O 	0.26408 0.46052 0.32574 -0.50600
O 	O 	0.33196 0.07812 0.66941 -0.46300
O 	O 	0.66804 0.07812 0.33059 -0.46200
O 	O 	0.83196 0.57812 0.66941 -0.47100
O 	O 	0.16804 0.57812 0.33059 -0.47100
O 	O 	0.53144 0.61866 0.92834 -0.26900
H 	H 	0.53512 0.55467 0.96390 0.14400
O 	O 	0.45318 0.64165 0.07797 -0.26600
H 	H 	0.45550 0.57022 0.04778 0.14200
O 	O 	0.03145 0.11867 0.92834 -0.26300
H 	H 	0.03512 0.05467 0.96390 0.14800
O 	O 	0.95318 0.14164 0.07796 -0.26500
H 	H 	0.95550 0.07022 0.04777 0.14800
C 	C 	0.36859 0.48547 0.92596 0.07100
N 	N 	0.42226 0.47244 0.90135 -0.13100
C 	C 	0.62149 0.51213 0.07063 0.07000
N 	N 	0.56817 0.50484 0.09677 -0.13400
C 	C 	0.86859 0.98548 0.92597 0.07300
N 	N 	0.92226 0.97245 0.90135 -0.14600
C 	C 	0.12149 0.01213 0.07063 0.07400
N 	N 	0.06817 0.00484 0.09678 -0.12800
