data_crystal

_cell_length_a 6.94558
_cell_length_b 13.63535
_cell_length_c 20.40606
_cell_angle_alpha 102.15115
_cell_angle_beta  89.91770
_cell_angle_gamma 90.68810

_symmetry_space_group_name_	'P 1'
_symmetry_space_group_name_H-M	'P 1'

loop_
_symmetry_equiv_pos_as_xyz
  x,y,z

loop_
_atom_site_label
_atom_site_type_symbol
_atom_site_fract_x
_atom_site_fract_y
_atom_site_fract_z
_atom_site_charge
O 	O 	0.50686 0.59939 0.44924 -0.47800
O 	O 	0.18022 0.59460 0.58678 -0.49500
O 	O 	0.00450 0.40061 0.55076 -0.47800
C 	C 	0.34905 0.61611 0.61344 0.40500
O 	O 	0.17749 0.61129 0.45197 -0.48600
O 	O 	0.00175 0.41742 0.41499 -0.48900
C 	C 	0.34706 0.63810 0.43538 0.38700
O 	O 	0.50961 0.58258 0.58501 -0.48900
O 	O 	0.33742 0.43637 0.48802 -0.64100
V 	V 	0.06468 0.51180 0.50222 1.80800
O 	O 	0.67171 0.40540 0.41322 -0.49900
C 	C 	0.83979 0.38406 0.38654 0.40600
O 	O 	0.67444 0.38871 0.54803 -0.48500
C 	C 	0.84248 0.36203 0.56478 0.38400
V 	V 	0.56401 0.48820 0.49778 1.80800
O 	O 	0.84114 0.56363 0.51198 -0.64000
C 	C 	0.84898 0.10769 0.60932 -0.04100
H 	H 	0.84148 0.16413 0.51788 0.04500
H 	H 	0.83344 0.98272 0.69810 0.05000
C 	C 	0.84867 0.28404 0.60413 -0.10100
C 	C 	0.87381 0.31480 0.92752 0.03100
C 	C 	0.87607 0.39036 0.89136 -0.05000
C 	C 	0.87058 0.36685 0.82155 -0.02000
C 	C 	0.86171 0.26573 0.78558 -0.01100
C 	C 	0.85828 0.18881 0.82320 0.06600
C 	C 	0.85710 0.23864 0.71380 -0.00800
C 	C 	0.85181 0.13508 0.68079 0.02800
C 	C 	0.84510 0.06177 0.72000 -0.04500
C 	C 	0.84911 0.08799 0.78940 -0.05000
C 	C 	0.85600 0.31152 0.67376 0.01100
C 	C 	0.84478 0.18334 0.57221 0.03000
C 	C 	0.86472 0.21433 0.89424 -0.11800
H 	H 	0.85796 0.39083 0.69484 0.03600
H 	H 	0.88003 0.33469 0.98177 0.03100
H 	H 	0.87474 0.43003 0.79766 0.03900
H 	H 	0.88338 0.46806 0.91767 0.04600
H 	H 	0.84420 0.02771 0.81649 0.05100
C 	C 	0.00541 0.28877 0.28502 0.01800
C 	C 	0.84221 0.31565 0.31977 -0.16900
H 	H 	0.14260 0.31739 0.30698 0.04300
H 	H 	0.70354 0.28749 0.29949 0.08800
C 	C 	0.01374 0.22066 0.21740 0.01900
C 	C 	0.85857 0.18330 0.18036 -0.17200
H 	H 	0.15660 0.20144 0.19741 0.04000
H 	H 	0.71443 0.20172 0.19876 0.08800
C 	C 	0.20469 0.79126 0.78218 0.02200
C 	C 	0.36362 0.81576 0.81990 -0.17200
H 	H 	0.06716 0.82179 0.80145 0.04100
H 	H 	0.50197 0.78561 0.80194 0.08900
C 	C 	0.20295 0.72276 0.71467 0.01800
C 	C 	0.36103 0.68448 0.68016 -0.16800
H 	H 	0.06176 0.70400 0.69245 0.04300
H 	H 	0.50410 0.70291 0.70031 0.08900
C 	C 	0.40578 0.88766 0.38738 -0.06100
H 	H 	0.40285 0.83738 0.48019 0.04000
H 	H 	0.43171 0.01226 0.30402 0.03500
H 	H 	0.42974 0.96526 0.41227 0.06500
C 	C 	0.35894 0.71493 0.39530 -0.10200
C 	C 	0.32481 0.68569 0.07167 0.03200
C 	C 	0.30849 0.61002 0.10753 -0.05000
C 	C 	0.32025 0.63241 0.17726 -0.01900
C 	C 	0.34919 0.73237 0.21326 -0.01100
C 	C 	0.36695 0.80960 0.17604 0.07000
C 	C 	0.36104 0.75826 0.28480 -0.00800
C 	C 	0.39170 0.86030 0.31723 0.03400
C 	C 	0.40860 0.93438 0.27958 -0.02100
C 	C 	0.39618 0.90967 0.21018 -0.05600
C 	C 	0.34404 0.68652 0.32553 0.01400
C 	C 	0.39024 0.81526 0.42615 0.04000
C 	C 	0.35419 0.78511 0.10514 -0.11900
H 	H 	0.32055 0.60784 0.30491 0.03500
H 	H 	0.31416 0.66670 0.01748 0.03200
H 	H 	0.30603 0.56955 0.20124 0.03900
H 	H 	0.28596 0.53316 0.08106 0.04700
H 	H 	0.41010 0.97008 0.18346 0.06000
O 	O 	0.20323 0.91731 0.91502 -0.48700
O 	O 	0.53550 0.88869 0.04804 -0.48300
O 	O 	0.71108 0.08261 0.08500 -0.49500
C 	C 	0.36604 0.86233 0.06502 0.39000
O 	O 	0.53263 0.90537 0.91323 -0.49800
O 	O 	0.70819 0.09941 0.94923 -0.48000
C 	C 	0.36439 0.88425 0.88650 0.40600
O 	O 	0.20612 0.90051 0.05079 -0.47300
O 	O 	0.37536 0.06357 0.01199 -0.64800
V 	V 	0.64817 0.98820 0.99778 1.80900
O 	O 	0.03824 0.11139 0.95194 -0.48600
C 	C 	0.87027 0.13742 0.93474 0.38700
O 	O 	0.04112 0.09471 0.08675 -0.50200
C 	C 	0.87250 0.11571 0.11353 0.40600
V 	V 	0.14881 0.01193 0.00218 1.80300
O 	O 	0.87175 0.93643 0.98801 -0.64300
C 	C 	0.85472 0.00154 0.57159 0.09700
H 	H 	0.90717 0.94225 0.59445 0.02500
O 	O 	0.80357 0.97894 0.51303 -0.17900
