data_crystal

_cell_length_a 17.07836
_cell_length_b 8.67348
_cell_length_c 7.44341
_cell_angle_alpha 103.10326
_cell_angle_beta  89.15251
_cell_angle_gamma 92.71721

_symmetry_space_group_name_	'P 1'
_symmetry_space_group_name_H-M	'P 1'

loop_
_symmetry_equiv_pos_as_xyz
  x,y,z

loop_
_atom_site_label
_atom_site_type_symbol
_atom_site_fract_x
_atom_site_fract_y
_atom_site_fract_z
_atom_site_charge
C 	C 	0.49759 0.19976 0.45359 0.32800
C 	C 	0.50241 0.80024 0.54641 0.32900
C 	C 	0.49645 0.03174 0.42754 -0.10600
C 	C 	0.50355 0.96826 0.57246 -0.10600
C 	C 	0.35120 0.50234 0.52809 0.34600
C 	C 	0.64880 0.49765 0.47191 0.34600
C 	C 	0.26653 0.50514 0.55327 -0.16500
C 	C 	0.73347 0.49472 0.44672 -0.16500
C 	C 	0.22113 0.36099 0.52606 0.10000
C 	C 	0.77890 0.63880 0.47363 0.10000
C 	C 	0.13869 0.36581 0.54870 -0.02900
C 	C 	0.86134 0.63383 0.45102 -0.02900
C 	C 	0.10396 0.51504 0.58827 0.04600
C 	C 	0.89603 0.48453 0.41176 0.04600
C 	C 	0.15021 0.65540 0.62311 -0.12400
C 	C 	0.84974 0.34423 0.37723 -0.12400
C 	C 	0.23138 0.65230 0.60652 0.13600
C 	C 	0.76857 0.34746 0.39380 0.13600
C 	C 	0.01925 0.53078 0.57844 -0.05400
C 	C 	0.98073 0.46873 0.42159 -0.05400
Cu	Cu	0.50870 0.51725 0.68300 0.92600
Cu	Cu	0.49130 0.48275 0.31700 0.92600
H 	H 	0.01026 0.39390 0.30589 0.04200
H 	H 	0.98971 0.60564 0.69411 0.04200
H 	H 	0.12230 0.76824 0.65579 0.05500
H 	H 	0.87762 0.23133 0.34482 0.05500
H 	H 	0.48981 0.95998 0.28798 0.08400
H 	H 	0.51019 0.04002 0.71202 0.08400
H 	H 	0.43904 0.37946 0.95907 0.09000
H 	H 	0.56096 0.62054 0.04093 0.09000
N 	N 	0.47818 0.45675 0.04198 -0.18100
N 	N 	0.52182 0.54325 0.95802 -0.18100
O 	O 	0.50565 0.28604 0.61888 -0.38600
O 	O 	0.49435 0.71396 0.38112 -0.38600
O 	O 	0.49096 0.25691 0.30980 -0.38800
O 	O 	0.50904 0.74309 0.69020 -0.38800
O 	O 	0.39460 0.51623 0.67245 -0.39100
O 	O 	0.60540 0.48377 0.32755 -0.39100
O 	O 	0.37991 0.48710 0.36338 -0.38800
O 	O 	0.62009 0.51290 0.63662 -0.38800
C 	C 	0.26230 0.20549 0.47353 -0.20600
H 	H 	0.22231 0.09882 0.44826 0.06700
H 	H 	0.29639 0.20080 0.34439 0.08300
H 	H 	0.30313 0.19681 0.58522 0.07800
C 	C 	0.73778 0.79438 0.52583 -0.20600
H 	H 	0.77780 0.90101 0.55088 0.06700
H 	H 	0.69697 0.80292 0.41405 0.07800
H 	H 	0.70369 0.79931 0.65502 0.08300
C 	C 	0.72034 0.19326 0.36096 -0.22400
H 	H 	0.68790 0.18379 0.48872 0.08500
H 	H 	0.67779 0.18835 0.24824 0.09000
H 	H 	0.75747 0.08911 0.32062 0.07000
C 	C 	0.27956 0.80655 0.63965 -0.22500
H 	H 	0.31201 0.81624 0.51198 0.08500
H 	H 	0.24239 0.91062 0.68012 0.07000
H 	H 	0.32210 0.81138 0.75235 0.09000
C 	C 	0.91112 0.78532 0.46339 -0.14600
H 	H 	0.88815 0.85363 0.36774 0.05200
H 	H 	0.91032 0.85801 0.60683 0.05300
H 	H 	0.97299 0.76409 0.42223 0.05700
C 	C 	0.08897 0.21421 0.53603 -0.14600
H 	H 	0.11200 0.14574 0.63143 0.05200
H 	H 	0.02710 0.23529 0.57735 0.05700
H 	H 	0.08975 0.14175 0.39249 0.05300
