data_crystal

_cell_length_a 6.94479
_cell_length_b 13.62943
_cell_length_c 20.40188
_cell_angle_alpha 102.12028
_cell_angle_beta  90.21528
_cell_angle_gamma 90.46125

_symmetry_space_group_name_	'P 1'
_symmetry_space_group_name_H-M	'P 1'

loop_
_symmetry_equiv_pos_as_xyz
  x,y,z

loop_
_atom_site_label
_atom_site_type_symbol
_atom_site_fract_x
_atom_site_fract_y
_atom_site_fract_z
_atom_site_charge
O 	O 	0.50686 0.59939 0.44924 -0.47700
O 	O 	0.18022 0.59460 0.58678 -0.49800
O 	O 	0.00450 0.40061 0.55076 -0.48700
C 	C 	0.34918 0.61598 0.61350 0.40400
O 	O 	0.17749 0.61129 0.45197 -0.48900
O 	O 	0.00175 0.41742 0.41499 -0.49600
C 	C 	0.34643 0.63796 0.43524 0.38700
O 	O 	0.50961 0.58258 0.58501 -0.48900
O 	O 	0.33742 0.43637 0.48802 -0.64200
V 	V 	0.06468 0.51180 0.50222 1.80700
O 	O 	0.67171 0.40540 0.41322 -0.49900
C 	C 	0.83964 0.38409 0.38652 0.41200
O 	O 	0.67444 0.38871 0.54803 -0.48700
C 	C 	0.84340 0.36207 0.56488 0.39100
V 	V 	0.56401 0.48820 0.49778 1.80800
O 	O 	0.84114 0.56363 0.51198 -0.63700
C 	C 	0.94429 0.11835 0.61542 -0.05800
H 	H 	0.94255 0.16806 0.52239 0.03400
H 	H 	0.98059 0.99602 0.69961 0.04100
H 	H 	0.98608 0.04290 0.59149 0.05100
C 	C 	0.85587 0.28523 0.60510 -0.09600
C 	C 	0.82659 0.31802 0.93081 0.16100
C 	C 	0.82359 0.39391 0.89444 -0.15500
C 	C 	0.85269 0.37375 0.82527 0.17400
C 	C 	0.86601 0.27261 0.78859 -0.09200
C 	C 	0.88204 0.19540 0.82607 0.11400
C 	C 	0.87191 0.24515 0.71668 0.03300
C 	C 	0.92114 0.14527 0.68523 0.01400
C 	C 	0.94567 0.07260 0.72338 -0.01900
C 	C 	0.92118 0.09638 0.79225 -0.07500
C 	C 	0.82666 0.31198 0.67436 -0.00700
C 	C 	0.91731 0.18885 0.57587 0.02700
C 	C 	0.86107 0.21839 0.89691 -0.16900
H 	H 	0.76659 0.38492 0.69312 0.05900
H 	H 	0.80805 0.47124 0.92065 0.09700
H 	H 	0.93722 0.03608 0.81889 0.06300
C 	C 	0.00523 0.28891 0.28513 0.01300
C 	C 	0.84197 0.31573 0.31972 -0.16000
H 	H 	0.14234 0.31761 0.30723 0.04500
H 	H 	0.70334 0.28755 0.29930 0.08800
C 	C 	0.01387 0.22078 0.21753 0.01400
C 	C 	0.85882 0.18311 0.18041 -0.15400
H 	H 	0.15678 0.20175 0.19765 0.04600
H 	H 	0.71465 0.20139 0.19870 0.09100
C 	C 	0.20434 0.79081 0.78216 0.02100
C 	C 	0.36328 0.81540 0.82005 -0.17400
H 	H 	0.06666 0.82131 0.80125 0.03800
H 	H 	0.50173 0.78520 0.80224 0.09100
C 	C 	0.20297 0.72242 0.71462 0.01500
C 	C 	0.36122 0.68415 0.68030 -0.17000
H 	H 	0.06176 0.70362 0.69222 0.04100
H 	H 	0.50432 0.70248 0.70064 0.09000
C 	C 	0.37512 0.88877 0.38743 -0.07000
H 	H 	0.37087 0.83866 0.48033 0.02900
H 	H 	0.38771 0.01397 0.30422 0.04100
H 	H 	0.38442 0.96711 0.41249 0.05200
C 	C 	0.35576 0.71474 0.39507 -0.10500
C 	C 	0.34409 0.68434 0.07104 0.03700
C 	C 	0.33515 0.60828 0.10680 -0.04400
C 	C 	0.33952 0.63100 0.17665 -0.01500
C 	C 	0.35287 0.73172 0.21287 -0.00900
C 	C 	0.36130 0.80943 0.17577 0.06900
C 	C 	0.35797 0.75794 0.28450 -0.01000
C 	C 	0.37048 0.86089 0.31715 0.03600
C 	C 	0.37818 0.93541 0.27962 -0.03500
C 	C 	0.37386 0.91031 0.21012 -0.05200
C 	C 	0.35108 0.68573 0.32514 0.01400
C 	C 	0.36757 0.81603 0.42615 0.03500
C 	C 	0.35704 0.78456 0.10477 -0.11700
H 	H 	0.34178 0.60634 0.30435 0.03700
H 	H 	0.34077 0.66503 0.01673 0.03900
H 	H 	0.33194 0.56781 0.20056 0.04500
H 	H 	0.32475 0.53082 0.08016 0.06500
H 	H 	0.38036 0.97110 0.18349 0.05700
O 	O 	0.20323 0.91731 0.91502 -0.49500
O 	O 	0.53550 0.88869 0.04804 -0.47900
O 	O 	0.71108 0.08261 0.08500 -0.48300
C 	C 	0.36657 0.86196 0.06474 0.39100
O 	O 	0.53263 0.90537 0.91323 -0.50100
O 	O 	0.70819 0.09941 0.94923 -0.48000
C 	C 	0.36420 0.88412 0.88655 0.40700
O 	O 	0.20612 0.90051 0.05079 -0.47400
O 	O 	0.37536 0.06357 0.01199 -0.63200
V 	V 	0.64817 0.98820 0.99778 1.80400
O 	O 	0.03824 0.11139 0.95194 -0.49400
C 	C 	0.86950 0.13820 0.93526 0.42700
O 	O 	0.04112 0.09471 0.08675 -0.49800
C 	C 	0.87268 0.11545 0.11362 0.42000
V 	V 	0.14881 0.01193 0.00218 1.80900
O 	O 	0.87175 0.93643 0.98801 -0.64600
N 	N 	0.80126 0.34449 0.00240 -0.02600
O 	O 	0.69265 0.41983 0.02862 -0.10300
O 	O 	0.90484 0.30275 0.04209 -0.09300
O 	O 	0.87649 0.45545 0.79586 -0.20500
C 	C 	0.07501 0.47763 0.79437 -0.03100
H 	H 	0.15612 0.41363 0.76434 0.04700
H 	H 	0.13634 0.49920 0.84594 0.04600
H 	H 	0.09436 0.54250 0.77002 0.05000
