data_crystal

_cell_length_a 10.86586
_cell_length_b 10.88152
_cell_length_c 9.57991
_cell_angle_alpha 89.98201
_cell_angle_beta  91.44190
_cell_angle_gamma 91.96167

_symmetry_space_group_name_	'P 1'
_symmetry_space_group_name_H-M	'P 1'

loop_
_symmetry_equiv_pos_as_xyz
  x,y,z

loop_
_atom_site_label
_atom_site_type_symbol
_atom_site_fract_x
_atom_site_fract_y
_atom_site_fract_z
_atom_site_charge
C 	C 	0.50809 0.26269 0.50151 0.31700
C 	C 	0.16082 0.66564 0.97750 0.07600
C 	C 	0.93163 0.54442 0.38893 -0.02100
C 	C 	0.87142 0.49681 0.50525 -0.08700
C 	C 	0.94060 0.44825 0.61796 0.04400
C 	C 	0.06821 0.45047 0.61137 -0.02700
C 	C 	0.12834 0.49918 0.49540 -0.08300
C 	C 	0.05886 0.54466 0.38166 0.03100
C 	C 	0.87331 0.45960 0.86323 -0.01500
C 	C 	0.83519 0.40396 0.98693 -0.04500
C 	C 	0.81192 0.27722 0.99160 -0.01000
C 	C 	0.26235 0.50047 0.49814 0.31500
C 	C 	0.82641 0.20577 0.87239 -0.07900
C 	C 	0.86174 0.26115 0.74606 0.07600
C 	C 	0.88574 0.38937 0.74201 -0.02900
C 	C 	0.54571 0.11815 0.76798 -0.05000
C 	C 	0.52050 0.05770 0.89256 -0.02700
C 	C 	0.46437 0.94168 0.88923 -0.02200
C 	C 	0.44438 0.88201 0.76189 -0.04800
C 	C 	0.48115 0.93707 0.63447 0.03800
C 	C 	0.51523 0.06315 0.63644 0.03700
C 	C 	0.51597 0.12848 0.50726 -0.08700
C 	C 	0.49230 0.73741 0.50086 0.31300
C 	C 	0.50902 0.06360 0.38101 -0.00700
C 	C 	0.49895 0.93672 0.38050 -0.00600
C 	C 	0.48567 0.87178 0.50565 -0.08900
C 	C 	0.65800 0.66824 0.14782 -0.07600
C 	C 	0.73372 0.75123 0.07729 -0.01200
C 	C 	0.73381 0.75068 0.93358 -0.02300
C 	C 	0.65850 0.66676 0.85969 -0.06800
C 	C 	0.57719 0.58279 0.92709 0.05100
C 	C 	0.57702 0.58310 0.07674 0.06300
C 	C 	0.42752 0.42041 0.07189 0.01900
C 	C 	0.73752 0.49739 0.50200 0.31900
C 	C 	0.42742 0.42056 0.92389 0.00500
C 	C 	0.15801 0.75101 0.08662 -0.06400
C 	C 	0.13264 0.71129 0.22214 -0.02200
C 	C 	0.11168 0.58570 0.24899 0.00500
C 	C 	0.12030 0.50008 0.14089 -0.01900
C 	C 	0.14518 0.53984 0.00603 -0.06500
Cu	Cu	0.49999 0.49999 0.64066 0.91700
Cu	Cu	0.50001 0.50001 0.35934 0.91700
H 	H 	0.78341 0.23412 0.08793 0.03600
H 	H 	0.80902 0.10734 0.87829 0.04600
H 	H 	0.51209 0.11095 0.28158 0.04300
H 	H 	0.59313 0.20611 0.77834 0.06500
H 	H 	0.54232 0.10221 0.99164 0.03400
H 	H 	0.43878 0.89647 0.98550 0.03600
H 	H 	0.39698 0.79425 0.76609 0.06300
H 	H 	0.50058 0.88950 0.28103 0.04400
H 	H 	0.36786 0.35540 0.12554 0.03000
H 	H 	0.17049 0.84834 0.06552 0.05200
H 	H 	0.66893 0.67420 0.25783 0.06600
H 	H 	0.79434 0.81513 0.13496 0.03100
H 	H 	0.79459 0.81398 0.87871 0.03300
H 	H 	0.67041 0.67003 0.75027 0.06500
H 	H 	0.36767 0.35563 0.86686 0.03100
H 	H 	0.12406 0.77838 0.30451 0.03900
H 	H 	0.10228 0.40305 0.15992 0.04200
H 	H 	0.14845 0.47297 0.92314 0.04500
H 	H 	0.87931 0.58094 0.30141 0.04600
H 	H 	0.12094 0.41017 0.69607 0.04600
H 	H 	0.89579 0.55724 0.86240 0.03700
H 	H 	0.82588 0.45887 0.07992 0.05000
N 	N 	0.50119 0.50121 0.14791 -0.18500
N 	N 	0.50123 0.50129 0.85204 -0.18400
O 	O 	0.49999 0.31964 0.61881 -0.38000
O 	O 	0.50000 0.31966 0.38124 -0.37500
O 	O 	0.31964 0.50000 0.61878 -0.38400
O 	O 	0.31965 0.50002 0.38121 -0.37600
O 	O 	0.50000 0.68034 0.61876 -0.38500
O 	O 	0.50001 0.68036 0.38119 -0.37800
O 	O 	0.68035 0.49998 0.61879 -0.38100
O 	O 	0.68036 0.50000 0.38122 -0.38200
N 	N 	0.17391 0.70747 0.83722 -0.19200
H 	H 	0.24253 0.65671 0.79257 0.09500
H 	H 	0.09178 0.68496 0.78251 0.08500
N 	N 	0.87444 0.18825 0.62259 -0.18500
H 	H 	0.96842 0.18521 0.60261 0.08300
H 	H 	0.84354 0.09762 0.64017 0.08200
