data_crystal

_cell_length_a 21.88574
_cell_length_b 7.23407
_cell_length_c 14.88166
_cell_angle_alpha 89.99945
_cell_angle_beta  106.78997
_cell_angle_gamma 90.00392

_symmetry_space_group_name_	'P 1'
_symmetry_space_group_name_H-M	'P 1'

loop_
_symmetry_equiv_pos_as_xyz
  x,y,z

loop_
_atom_site_label
_atom_site_type_symbol
_atom_site_fract_x
_atom_site_fract_y
_atom_site_fract_z
_atom_site_charge
O 	O 	0.58477 0.50577 0.00209 -0.47400
O 	O 	0.41523 0.00577 0.99791 -0.48400
O 	O 	0.46706 0.17334 0.86195 -0.46800
O 	O 	0.53294 0.67334 0.13805 -0.46800
C 	C 	0.45409 0.34421 0.82622 0.32000
C 	C 	0.54591 0.84422 0.17378 0.32700
O 	O 	0.58751 0.17589 0.99321 -0.48100
O 	O 	0.41249 0.67589 0.00679 -0.48000
O 	O 	0.53654 0.00815 0.13010 -0.46900
O 	O 	0.46346 0.50815 0.86990 -0.46000
C 	C 	0.61177 0.34480 0.99310 0.32800
C 	C 	0.38823 0.84478 0.00690 0.33900
O 	O 	0.48314 0.34004 0.04476 -0.61400
O 	O 	0.51686 0.84004 0.95524 -0.60700
V 	V 	0.50313 0.06419 0.99170 1.79200
V 	V 	0.49687 0.56419 0.00830 1.79400
C 	C 	0.21354 0.73620 0.99551 0.02300
C 	C 	0.78643 0.23616 0.00438 0.02900
C 	C 	0.17748 0.88920 0.98532 -0.15000
C 	C 	0.82254 0.38913 0.01474 -0.16500
H 	H 	0.19399 0.60323 0.00688 0.04000
H 	H 	0.80595 0.10326 0.99284 0.03700
H 	H 	0.19568 0.01814 0.96594 0.07400
H 	H 	0.80437 0.51798 0.03427 0.08600
C 	C 	0.27830 0.73899 0.98266 -0.02600
C 	C 	0.72168 0.23890 0.01724 -0.03800
C 	C 	0.32591 0.85609 0.02695 -0.06300
C 	C 	0.67410 0.35616 0.97305 -0.05400
H 	H 	0.28755 0.63553 0.93528 0.04700
H 	H 	0.71241 0.13527 0.06452 0.04700
C 	C 	0.93013 0.88659 0.72350 -0.07500
C 	C 	0.06986 0.38660 0.27649 -0.07400
C 	C 	0.57591 0.85368 0.27499 -0.08300
C 	C 	0.42409 0.35366 0.72501 -0.08200
C 	C 	0.94518 0.88404 0.56760 0.00500
C 	C 	0.05481 0.38405 0.43240 0.00500
C 	C 	0.97025 0.88862 0.66603 -0.01300
C 	C 	0.02975 0.38863 0.33397 -0.01400
C 	C 	0.86442 0.88231 0.68491 -0.00800
C 	C 	0.13558 0.38229 0.31508 -0.01000
C 	C 	0.83614 0.88527 0.58697 -0.00500
C 	C 	0.16386 0.38525 0.41303 -0.00600
C 	C 	0.87718 0.88173 0.52782 -0.00300
C 	C 	0.12282 0.38173 0.47218 -0.00500
C 	C 	0.76821 0.88962 0.54673 -0.00400
C 	C 	0.23179 0.38955 0.45326 -0.00500
C 	C 	0.74133 0.87665 0.44737 0.01300
C 	C 	0.25867 0.37662 0.55263 0.01200
C 	C 	0.78339 0.87043 0.39122 -0.04400
C 	C 	0.21661 0.37045 0.60878 -0.04500
C 	C 	0.84927 0.87535 0.43031 -0.03800
C 	C 	0.15073 0.37539 0.56969 -0.03900
C 	C 	0.72627 0.91027 0.60285 -0.03000
C 	C 	0.27373 0.41008 0.39714 -0.03100
C 	C 	0.66064 0.90829 0.56421 -0.06100
C 	C 	0.33937 0.40802 0.43578 -0.06100
C 	C 	0.63361 0.88789 0.46805 0.04300
C 	C 	0.36639 0.38771 0.53194 0.04200
C 	C 	0.67323 0.87286 0.40772 -0.02400
C 	C 	0.32677 0.37280 0.59228 -0.02400
C 	C 	0.56683 0.88501 0.43176 -0.07400
C 	C 	0.43317 0.38477 0.56822 -0.07500
C 	C 	0.53818 0.86835 0.33574 0.02500
C 	C 	0.46182 0.36819 0.66426 0.02200
C 	C 	0.64264 0.85511 0.31018 0.00700
C 	C 	0.35735 0.35514 0.68982 0.00500
H 	H 	0.87799 0.87255 0.38218 0.03700
H 	H 	0.12201 0.37261 0.61782 0.03500
H 	H 	0.66893 0.84240 0.25944 0.03400
H 	H 	0.33107 0.34254 0.74056 0.03400
H 	H 	0.48659 0.86843 0.30867 0.02700
H 	H 	0.51341 0.36822 0.69132 0.02500
H 	H 	0.63064 0.92376 0.61039 0.04200
H 	H 	0.36936 0.42338 0.38959 0.04000
H 	H 	0.02108 0.89266 0.69972 0.03800
H 	H 	0.97892 0.39268 0.30028 0.03500
H 	H 	0.83693 0.87477 0.73423 0.03700
H 	H 	0.16306 0.37476 0.26576 0.03600
H 	H 	0.76694 0.86460 0.31578 0.04100
H 	H 	0.23306 0.36464 0.68422 0.04000
H 	H 	0.74227 0.93253 0.67746 0.03500
H 	H 	0.25774 0.43229 0.32253 0.03300
H 	H 	0.53667 0.89698 0.47786 0.04800
H 	H 	0.46332 0.39663 0.52212 0.04500
O 	O 	0.03645 0.23307 0.13013 -0.46300
O 	O 	0.96355 0.73307 0.86987 -0.46300
O 	O 	0.91247 0.56057 0.00679 -0.48900
O 	O 	0.08753 0.06057 0.99321 -0.49900
C 	C 	0.88770 0.39212 0.00496 0.35600
C 	C 	0.11230 0.89214 0.99505 0.36700
O 	O 	0.03292 0.56294 0.13805 -0.46800
O 	O 	0.96708 0.06294 0.86195 -0.47900
O 	O 	0.08479 0.73050 0.00209 -0.47700
O 	O 	0.91521 0.23050 0.99791 -0.47600
C 	C 	0.04355 0.39429 0.17452 0.33300
C 	C 	0.95644 0.89429 0.82548 0.34300
O 	O 	0.01682 0.39617 0.95526 -0.61700
O 	O 	0.98318 0.89617 0.04474 -0.61500
V 	V 	0.99688 0.67209 0.00830 1.79200
V 	V 	0.00312 0.17209 0.99170 1.79100
C 	C 	0.32166 0.98527 0.10588 -0.04600
C 	C 	0.31997 0.87683 0.19391 -0.02600
C 	C 	0.31924 0.00672 0.27441 -0.17500
H 	H 	0.36284 0.09408 0.29351 0.06100
H 	H 	0.27635 0.09687 0.25396 0.06400
H 	H 	0.31790 0.92450 0.33684 0.07000
H 	H 	0.27684 0.78795 0.17870 0.03900
H 	H 	0.36274 0.78631 0.21660 0.03700
H 	H 	0.36427 0.07684 0.12574 0.04900
H 	H 	0.28019 0.07925 0.08330 0.04200
C 	C 	0.67840 0.48561 0.89426 -0.06400
C 	C 	0.67994 0.37748 0.80607 -0.03200
C 	C 	0.68118 0.50770 0.72592 -0.15600
H 	H 	0.63791 0.59648 0.70702 0.06000
H 	H 	0.72442 0.59647 0.74663 0.06200
H 	H 	0.68222 0.42571 0.66328 0.05900
H 	H 	0.72282 0.28758 0.82124 0.03800
H 	H 	0.63692 0.28798 0.78305 0.03500
H 	H 	0.63585 0.57746 0.87454 0.05800
H 	H 	0.71993 0.57932 0.91689 0.05100
C 	C 	0.98979 0.88306 0.50488 -0.09500
C 	C 	0.06223 0.88350 0.55480 -0.01100
C 	C 	0.10059 0.88277 0.48380 -0.15600
H 	H 	0.08934 0.75827 0.43870 0.07000
H 	H 	0.08920 0.00644 0.43807 0.06200
H 	H 	0.15243 0.88317 0.52132 0.06700
H 	H 	0.07599 0.00758 0.59987 0.02000
H 	H 	0.07592 0.76023 0.60054 0.02800
H 	H 	0.97906 0.76078 0.45880 0.04900
H 	H 	0.97864 0.00352 0.45748 0.04300
C 	C 	0.01021 0.38306 0.49512 -0.10100
C 	C 	0.93777 0.38348 0.44520 -0.02100
C 	C 	0.89941 0.38275 0.51620 -0.16600
H 	H 	0.91066 0.25826 0.56132 0.06800
H 	H 	0.91080 0.50643 0.56193 0.07000
H 	H 	0.84757 0.38310 0.47869 0.06500
H 	H 	0.92401 0.50756 0.40013 0.02900
H 	H 	0.92408 0.26020 0.39946 0.02800
H 	H 	0.02094 0.26079 0.54121 0.04900
H 	H 	0.02136 0.50353 0.54252 0.05000
