data_crystal

_cell_length_a 7.78536
_cell_length_b 8.56888
_cell_length_c 10.62022
_cell_angle_alpha 91.08454
_cell_angle_beta  85.73957
_cell_angle_gamma 93.65774

_symmetry_space_group_name_	'P 1'
_symmetry_space_group_name_H-M	'P 1'

loop_
_symmetry_equiv_pos_as_xyz
  x,y,z

loop_
_atom_site_label
_atom_site_type_symbol
_atom_site_fract_x
_atom_site_fract_y
_atom_site_fract_z
_atom_site_charge
C 	C 	0.54574 0.79467 0.49699 0.38400
C 	C 	0.45428 0.20533 0.50340 0.38700
C 	C 	0.49878 0.50323 0.26080 0.36200
C 	C 	0.40121 0.77952 0.87752 -0.06200
C 	C 	0.34596 0.90871 0.94748 -0.00000
C 	C 	0.34229 0.90846 0.07859 -0.02400
C 	C 	0.39217 0.77829 0.14019 -0.03400
C 	C 	0.44485 0.64475 0.07067 0.01900
C 	C 	0.45005 0.64531 0.93859 0.09500
C 	C 	0.50778 0.51209 0.87152 -0.19000
C 	C 	0.56504 0.38333 0.93175 0.22800
C 	C 	0.55895 0.38373 0.06069 -0.07900
C 	C 	0.49743 0.51121 0.12878 -0.06700
C 	C 	0.56977 0.95820 0.49548 -0.11500
C 	C 	0.43024 0.04179 0.50555 -0.10200
C 	C 	0.50243 0.50317 0.73927 0.42600
Cl	Cl	0.63919 0.21673 0.84919 -0.33300
H 	H 	0.98664 0.61794 0.59464 0.09200
H 	H 	0.40717 0.78711 0.77580 0.07000
H 	H 	0.30788 0.01008 0.89970 0.06100
H 	H 	0.30199 0.00984 0.13268 0.04900
H 	H 	0.39047 0.78431 0.24199 0.05700
H 	H 	0.60054 0.28337 0.10847 0.08300
H 	H 	0.70154 0.00926 0.48591 0.10200
H 	H 	0.29847 0.99072 0.51520 0.08900
H 	H 	0.01337 0.38206 0.40537 0.07500
N 	N 	0.95033 0.45795 0.46625 -0.21500
N 	N 	0.04967 0.54205 0.53375 -0.23400
O 	O 	0.38925 0.73857 0.50828 -0.46300
O 	O 	0.67839 0.71163 0.48665 -0.45300
O 	O 	0.35540 0.51347 0.69405 -0.45400
O 	O 	0.64454 0.48653 0.67242 -0.43500
O 	O 	0.32161 0.28837 0.51335 -0.45000
O 	O 	0.61075 0.26143 0.49172 -0.44500
O 	O 	0.35546 0.51347 0.32758 -0.44700
O 	O 	0.64460 0.48653 0.30595 -0.44200
Zn	Zn	0.30693 0.51799 0.51444 1.23200
Zn	Zn	0.69307 0.48201 0.48556 1.23300
