data_crystal

_cell_length_a 8.42634
_cell_length_b 12.85035
_cell_length_c 18.86032
_cell_angle_alpha 100.63125
_cell_angle_beta  91.39876
_cell_angle_gamma 99.59748

_symmetry_space_group_name_	'P 1'
_symmetry_space_group_name_H-M	'P 1'

loop_
_symmetry_equiv_pos_as_xyz
  x,y,z

loop_
_atom_site_label
_atom_site_type_symbol
_atom_site_fract_x
_atom_site_fract_y
_atom_site_fract_z
_atom_site_charge
Ba	Ba	0.85278 0.54834 0.46507 1.86100
Ba	Ba	0.33706 0.45175 0.53494 1.94700
C 	C 	0.57511 0.88431 0.24539 -0.06900
C 	C 	0.89182 0.39671 0.08939 -0.04200
C 	C 	0.73028 0.35475 0.06413 -0.00600
C 	C 	0.10905 0.80678 0.25740 0.11000
C 	C 	0.67163 0.36754 0.99737 -0.07000
C 	C 	0.77395 0.41754 0.95198 0.08200
C 	C 	0.93714 0.45607 0.97428 -0.07900
C 	C 	0.71559 0.42490 0.88345 -0.11100
C 	C 	0.82021 0.46167 0.83295 0.10100
C 	C 	0.98330 0.50539 0.85551 -0.13900
C 	C 	0.04082 0.50275 0.92683 0.10900
C 	C 	0.61033 0.80300 0.29061 0.05100
C 	C 	0.76733 0.45309 0.76011 -0.09600
C 	C 	0.87446 0.49031 0.71137 0.00200
C 	C 	0.03131 0.54332 0.73335 -0.07000
C 	C 	0.00412 0.81061 0.18977 0.07300
C 	C 	0.08816 0.55167 0.80717 0.11500
C 	C 	0.15862 0.48603 0.06698 0.01700
C 	C 	0.21607 0.48079 0.13806 -0.03000
C 	C 	0.10784 0.43753 0.18714 0.01900
C 	C 	0.95011 0.38767 0.15875 0.10800
C 	C 	0.24539 0.60276 0.83470 -0.10100
C 	C 	0.55938 0.24204 0.30382 0.22200
C 	C 	0.30524 0.59410 0.90380 0.06900
C 	C 	0.20281 0.54331 0.94999 -0.04700
C 	C 	0.26217 0.53421 0.01969 -0.00100
C 	C 	0.46736 0.63377 0.92716 -0.06300
C 	C 	0.28921 0.79636 0.64465 0.21100
C 	C 	0.52692 0.62270 0.99501 -0.02100
C 	C 	0.42514 0.57372 0.04195 0.01400
C 	C 	0.37924 0.52553 0.16121 0.04500
C 	C 	0.48326 0.56648 0.11125 -0.07800
C 	C 	0.43072 0.53315 0.23461 -0.07500
C 	C 	0.55860 0.18167 0.22486 -0.02300
C 	C 	0.32132 0.49634 0.28280 0.00400
C 	C 	0.16111 0.45019 0.26269 -0.04800
C 	C 	0.78016 0.17685 0.51043 0.06700
C 	C 	0.43530 0.80375 0.46040 0.05200
C 	C 	0.40432 0.98123 0.44177 -0.03600
C 	C 	0.40131 0.88836 0.69321 -0.24100
C 	C 	0.34316 0.87216 0.43277 -0.06700
C 	C 	0.57834 0.84648 0.50524 -0.07300
C 	C 	0.64206 0.95939 0.51197 0.00800
C 	C 	0.55495 0.02616 0.47841 0.03400
C 	C 	0.06706 0.24061 0.73030 0.13800
C 	C 	0.62101 0.13671 0.48171 -0.08200
C 	C 	0.86248 0.11433 0.54736 -0.08800
C 	C 	0.79174 0.00776 0.54960 -0.01200
C 	C 	0.96937 0.17760 0.33824 0.23500
C 	C 	0.96961 0.07429 0.28408 -0.15200
C 	C 	0.74546 0.71272 0.68098 0.07900
C 	C 	0.75747 0.74702 0.76342 -0.07500
C 	C 	0.13488 0.07264 0.25345 -0.08200
C 	C 	0.86986 0.85460 0.78896 -0.13200
C 	C 	0.50665 0.83125 0.16907 -0.13300
C 	C 	0.09137 0.21988 0.80633 -0.21500
C 	C 	0.14241 0.69312 0.24890 -0.21500
C 	C 	0.86623 0.28477 0.49796 -0.13500
C 	C 	0.37348 0.68529 0.44243 -0.12200
C 	C 	0.19073 0.84253 0.59370 -0.24000
C 	C 	0.54968 0.19274 0.72812 -0.04000
C 	C 	0.59791 0.14186 0.79123 0.22900
C 	C 	0.99585 0.44725 0.04392 -0.00200
H 	H 	0.68837 0.84588 0.33907 0.03600
H 	H 	0.49093 0.93300 0.27403 0.05800
H 	H 	0.80273 0.68488 0.78806 0.04400
H 	H 	0.63554 0.75322 0.78297 0.05000
H 	H 	0.49465 0.76724 0.30953 0.01700
H 	H 	0.68537 0.26781 0.32453 -0.00200
H 	H 	0.52719 0.23366 0.18742 0.04300
H 	H 	0.67960 0.16199 0.21358 0.05300
H 	H 	0.68695 0.93926 0.24051 0.04800
H 	H 	0.15533 0.31312 0.72519 0.02600
H 	H 	0.94248 0.25604 0.72274 -0.00300
H 	H 	0.46483 0.85772 0.73506 0.09500
H 	H 	0.21959 0.21754 0.81838 0.10600
H 	H 	0.05551 0.28528 0.84640 0.09900
H 	H 	0.01863 0.14157 0.81159 0.09700
H 	H 	0.65780 0.21403 0.69744 0.05100
H 	H 	0.46339 0.13170 0.69019 0.05400
H 	H 	0.62401 0.06021 0.76938 -0.02500
H 	H 	0.64572 0.31204 0.09520 0.03300
H 	H 	0.54626 0.33575 0.98050 0.06300
H 	H 	0.83147 0.48344 0.65590 -0.01200
H 	H 	0.58883 0.39661 0.86923 0.08700
H 	H 	0.49139 0.92955 0.66097 0.08700
H 	H 	0.32488 0.64682 0.80225 0.08300
H 	H 	0.54910 0.67213 0.89248 0.04800
H 	H 	0.65282 0.65358 0.01112 0.02700
H 	H 	0.60930 0.59684 0.12657 0.06100
H 	H 	0.22386 0.86358 0.25920 0.01500
H 	H 	0.36428 0.49987 0.33764 0.00200
H 	H 	0.33061 0.03006 0.41989 0.06900
H 	H 	0.85806 0.96288 0.57902 0.05200
H 	H 	0.91728 0.73405 0.17269 0.01800
H 	H 	0.93088 0.87499 0.20103 0.00700
H 	H 	0.32953 0.94725 0.72047 0.08700
H 	H 	0.36282 0.74203 0.61343 -0.03500
H 	H 	0.06692 0.13142 0.41701 0.16900
H 	H 	0.12629 0.01732 0.20083 0.06600
H 	H 	0.18850 0.15257 0.24266 0.08000
H 	H 	0.21541 0.04813 0.29230 0.08100
H 	H 	0.99260 0.85040 0.76999 0.05900
H 	H 	0.82311 0.92004 0.76851 0.06100
H 	H 	0.87785 0.87426 0.84893 0.04700
H 	H 	0.60090 0.79655 0.13724 0.06100
H 	H 	0.40270 0.76715 0.17080 0.06800
H 	H 	0.85023 0.17070 0.36155 -0.02400
H 	H 	0.46637 0.89102 0.14063 0.06400
H 	H 	0.37149 0.30649 0.29594 0.16100
H 	H 	0.42786 0.06587 0.15809 0.12900
H 	H 	0.02876 0.82762 0.09079 0.14500
H 	H 	0.76419 0.16845 0.86772 0.14900
H 	H 	0.24885 0.69162 0.28248 0.07900
H 	H 	0.03812 0.63924 0.26404 0.11300
H 	H 	0.16725 0.66447 0.19226 0.09100
H 	H 	0.39088 0.07383 0.81883 0.14300
H 	H 	0.75308 0.35248 0.20177 0.16500
H 	H 	0.88240 0.07059 0.23839 0.06800
H 	H 	0.83492 0.30242 0.44543 0.01000
H 	H 	0.84978 0.35057 0.54285 -0.00800
H 	H 	0.99285 0.28528 0.48806 0.01400
H 	H 	0.45789 0.63190 0.43680 0.01100
H 	H 	0.28633 0.65935 0.48150 -0.02300
H 	H 	0.33069 0.66514 0.38572 0.05000
H 	H 	0.26738 0.90522 0.57057 0.09900
H 	H 	0.13537 0.77602 0.54994 0.07900
H 	H 	0.09497 0.87998 0.62269 0.11600
H 	H 	0.93312 0.00452 0.31042 0.06900
H 	H 	0.86513 0.69998 0.66186 -0.00500
H 	H 	0.65804 0.63603 0.66683 -0.01300
O 	O 	0.87309 0.42589 0.32514 -0.34100
O 	O 	0.19822 0.12419 0.55134 -0.20200
O 	O 	0.09213 0.15023 0.68013 -0.22300
O 	O 	0.12242 0.43437 0.41438 -0.48200
O 	O 	0.57837 0.63380 0.53638 -0.48900
O 	O 	0.34151 0.23185 0.46551 -0.30000
O 	O 	0.47626 0.17513 0.34619 -0.24000
O 	O 	0.44844 0.47641 0.75468 -0.21400
O 	O 	0.47031 0.27914 0.75437 -0.18100
O 	O 	0.65950 0.62710 0.36881 -0.33400
O 	O 	0.76663 0.54061 0.24435 -0.22300
O 	O 	0.69295 0.79321 0.65023 -0.24000
O 	O 	0.99261 0.25775 0.29735 -0.25900
O 	O 	0.69062 0.72703 0.24965 -0.21900
O 	O 	0.84820 0.76819 0.53453 -0.34400
O 	O 	0.08116 0.68595 0.40481 -0.33300
O 	O 	0.02378 0.87578 0.45900 -0.18900
O 	O 	0.09414 0.19081 0.38988 -0.29500
O 	O 	0.48871 0.33314 0.30613 -0.32300
O 	O 	0.44958 0.08504 0.21128 -0.24800
O 	O 	0.10237 0.82634 0.13239 -0.27900
O 	O 	0.73791 0.20422 0.82763 -0.30100
O 	O 	0.02725 0.83749 0.32033 -0.21000
O 	O 	0.47495 0.13592 0.84011 -0.29300
O 	O 	0.85507 0.32443 0.19690 -0.26900
O 	O 	0.31661 0.57414 0.67490 -0.34300
O 	O 	0.06729 0.56572 0.58563 -0.48200
O 	O 	0.53021 0.37299 0.63120 -0.34100
O 	O 	0.18340 0.74566 0.68879 -0.25900
O 	O 	0.61134 0.36629 0.46363 -0.45600
O 	O 	0.10855 0.31414 0.59520 -0.33400
P 	P 	0.04104 0.39477 0.33633 0.37900
P 	P 	0.67288 0.75403 0.55610 0.33900
P 	P 	0.12574 0.82227 0.40072 0.30900
P 	P 	0.14867 0.60532 0.66368 0.34200
P 	P 	0.06467 0.17449 0.59265 0.33400
P 	P 	0.63393 0.60252 0.27447 0.31300
P 	P 	0.51635 0.22836 0.43861 0.31100
P 	P 	0.55782 0.39587 0.72497 0.31500
