data_crystal

_cell_length_a 18.36531
_cell_length_b 7.07697
_cell_length_c 13.41729
_cell_angle_alpha 90.00039
_cell_angle_beta  69.76978
_cell_angle_gamma 89.99990

_symmetry_space_group_name_	'P 1'
_symmetry_space_group_name_H-M	'P 1'

loop_
_symmetry_equiv_pos_as_xyz
  x,y,z

loop_
_atom_site_label
_atom_site_type_symbol
_atom_site_fract_x
_atom_site_fract_y
_atom_site_fract_z
_atom_site_charge
O 	O 	0.45388 0.50620 0.15001 -0.47000
O 	O 	0.54612 0.00620 0.84999 -0.46900
O 	O 	0.60408 0.17777 0.00728 -0.49800
O 	O 	0.39592 0.67777 0.99272 -0.49700
C 	C 	0.63607 0.34473 0.00179 0.36400
C 	C 	0.36393 0.84473 0.99821 0.36200
O 	O 	0.45801 0.17664 0.15913 -0.48400
O 	O 	0.54199 0.67664 0.84087 -0.48300
O 	O 	0.39901 0.00401 0.00293 -0.48800
O 	O 	0.60099 0.50401 0.99707 -0.48600
C 	C 	0.44091 0.34460 0.20042 0.36100
C 	C 	0.55908 0.84460 0.79957 0.35800
O 	O 	0.48081 0.33844 0.94857 -0.63100
O 	O 	0.51919 0.83844 0.05143 -0.62900
V 	V 	0.50356 0.06449 0.00954 1.79300
V 	V 	0.49644 0.56449 0.99046 1.79400
C 	C 	0.58888 0.76769 0.51548 -0.05300
C 	C 	0.41112 0.26772 0.48451 -0.05400
H 	H 	0.48999 0.79524 0.65659 0.02300
H 	H 	0.51001 0.29524 0.34340 0.02400
C 	C 	0.59654 0.84641 0.68522 -0.09500
C 	C 	0.40345 0.34641 0.31477 -0.09600
C 	C 	0.95877 0.90969 0.37720 0.03200
C 	C 	0.04122 0.40965 0.62281 0.03600
C 	C 	0.92728 0.91867 0.48739 -0.05400
C 	C 	0.07271 0.41862 0.51261 -0.05500
C 	C 	0.84835 0.88534 0.53988 -0.01500
C 	C 	0.15164 0.38531 0.46012 -0.01400
C 	C 	0.79879 0.83901 0.48262 -0.02700
C 	C 	0.20120 0.33900 0.51738 -0.02700
C 	C 	0.83287 0.81717 0.37065 0.08400
C 	C 	0.16712 0.31718 0.62935 0.08400
C 	C 	0.71644 0.82139 0.53168 0.00800
C 	C 	0.28355 0.32140 0.46832 0.00800
C 	C 	0.67053 0.77597 0.46815 -0.00700
C 	C 	0.32946 0.27600 0.53184 -0.00700
C 	C 	0.70666 0.74673 0.35800 0.04600
C 	C 	0.29334 0.24676 0.64199 0.04600
C 	C 	0.78653 0.76505 0.31160 -0.09500
C 	C 	0.21347 0.26507 0.68839 -0.09500
C 	C 	0.67747 0.85482 0.64123 -0.00100
C 	C 	0.32252 0.35482 0.35877 -0.00100
C 	C 	0.55261 0.80436 0.62234 0.01800
C 	C 	0.44738 0.30438 0.37765 0.01800
C 	C 	0.91229 0.85901 0.31816 -0.11800
C 	C 	0.08770 0.35900 0.68184 -0.11900
H 	H 	0.70803 0.88421 0.69508 0.03800
H 	H 	0.29195 0.38421 0.30491 0.03900
H 	H 	0.82806 0.89860 0.62505 0.03800
H 	H 	0.17193 0.39856 0.37495 0.03900
H 	H 	0.81144 0.75072 0.22625 0.06800
H 	H 	0.18856 0.25075 0.77375 0.06800
C 	C 	0.21651 0.85856 0.99990 -0.03300
C 	C 	0.78349 0.35856 0.00010 -0.02800
C 	C 	0.28363 0.85288 0.99880 -0.05600
C 	C 	0.71637 0.35288 0.00120 -0.05800
O 	O 	0.89903 0.20549 0.00279 -0.46300
O 	O 	0.10097 0.70549 0.99721 -0.46500
O 	O 	0.04200 0.53637 0.84084 -0.46900
O 	O 	0.95800 0.03637 0.15916 -0.47000
C 	C 	0.05416 0.36752 0.79848 0.36800
C 	C 	0.94584 0.86752 0.20152 0.36800
O 	O 	0.89593 0.53507 0.99269 -0.48300
O 	O 	0.10407 0.03507 0.00731 -0.48800
O 	O 	0.95387 0.70752 0.15004 -0.46200
O 	O 	0.04613 0.20752 0.84996 -0.46200
C 	C 	0.86393 0.36659 0.99899 0.32900
C 	C 	0.13607 0.86659 0.00101 0.33700
O 	O 	0.01920 0.37434 0.05134 -0.62500
O 	O 	0.98080 0.87434 0.94866 -0.62800
V 	V 	0.99644 0.64835 0.99047 1.79100
V 	V 	0.00356 0.14835 0.00953 1.79000
C 	C 	0.66148 0.74149 0.28360 -0.11900
C 	C 	0.63665 0.94430 0.27273 0.00500
C 	C 	0.58971 0.95232 0.20111 -0.19000
H 	H 	0.62493 0.89654 0.12170 0.09400
H 	H 	0.53523 0.86999 0.23571 0.09000
H 	H 	0.57559 0.10214 0.19433 0.08000
H 	H 	0.60119 0.00415 0.35107 0.02700
H 	H 	0.68894 0.03499 0.23856 0.03300
H 	H 	0.69794 0.68808 0.20389 0.06400
H 	H 	0.61153 0.64287 0.31140 0.05700
C 	C 	0.33852 0.24152 0.71640 -0.11800
C 	C 	0.36333 0.44433 0.72727 0.00200
C 	C 	0.41030 0.45236 0.79886 -0.19100
H 	H 	0.37511 0.39652 0.87826 0.09400
H 	H 	0.46478 0.37008 0.76421 0.09000
H 	H 	0.42441 0.60217 0.80566 0.08100
H 	H 	0.39877 0.50422 0.64894 0.02800
H 	H 	0.31104 0.53499 0.76148 0.03500
H 	H 	0.30206 0.18810 0.79610 0.06400
H 	H 	0.38847 0.14292 0.68859 0.05700
H 	H 	0.55142 0.73342 0.47136 0.04100
H 	H 	0.44858 0.23346 0.52863 0.04100
H 	H 	0.01960 0.94281 0.33769 0.03200
H 	H 	0.98039 0.44276 0.66232 0.03000
H 	H 	0.96398 0.95607 0.53250 0.04900
H 	H 	0.03601 0.45599 0.46751 0.05000
