data_crystal

_cell_length_a 11.41418
_cell_length_b 18.65372
_cell_length_c 10.03337
_cell_angle_alpha 90.00003
_cell_angle_beta  108.93525
_cell_angle_gamma 89.99911

_symmetry_space_group_name_	'P 1'
_symmetry_space_group_name_H-M	'P 1'

loop_
_symmetry_equiv_pos_as_xyz
  x,y,z

loop_
_atom_site_label
_atom_site_type_symbol
_atom_site_fract_x
_atom_site_fract_y
_atom_site_fract_z
_atom_site_charge
C 	C 	0.07145 0.64678 0.14098 0.44700
C 	C 	0.92856 0.35321 0.85903 0.44700
C 	C 	0.92854 0.14678 0.85902 0.44600
C 	C 	0.07144 0.85321 0.14097 0.44600
C 	C 	0.42960 0.47201 0.58190 0.03900
C 	C 	0.57041 0.52799 0.41820 0.03900
C 	C 	0.57037 0.97201 0.41808 0.03900
C 	C 	0.42958 0.02799 0.58180 0.03900
C 	C 	0.42193 0.91881 0.91568 -0.20700
C 	C 	0.57806 0.08118 0.08430 -0.20700
C 	C 	0.57806 0.41881 0.08432 -0.20200
C 	C 	0.42194 0.58119 0.91570 -0.20200
C 	C 	0.45952 0.97170 0.00937 0.03100
C 	C 	0.54041 0.02832 0.99057 0.03100
C 	C 	0.54047 0.47170 0.99062 0.02700
C 	C 	0.45959 0.52832 0.00942 0.02700
C 	C 	0.01504 0.92435 0.12084 -0.22800
C 	C 	0.98487 0.07563 0.87913 -0.22800
C 	C 	0.98494 0.42435 0.87916 -0.23300
C 	C 	0.01510 0.57563 0.12086 -0.23300
C 	C 	0.99289 0.96015 0.99871 0.09800
C 	C 	0.00705 0.03982 0.00126 0.09800
C 	C 	0.00709 0.46016 0.00128 0.10200
C 	C 	0.99293 0.53983 0.99874 0.10200
C 	C 	0.43625 0.63731 0.37369 0.32100
C 	C 	0.56376 0.36268 0.62634 0.32100
C 	C 	0.56375 0.13731 0.62631 0.32100
C 	C 	0.43624 0.86268 0.37365 0.32100
C 	C 	0.37853 0.64612 0.96322 0.42500
C 	C 	0.62147 0.35388 0.03678 0.42500
C 	C 	0.62147 0.14612 0.03678 0.42500
C 	C 	0.37853 0.85388 0.96322 0.42500
C 	C 	0.54193 0.43884 0.58355 -0.10500
C 	C 	0.45808 0.56116 0.41653 -0.10500
C 	C 	0.45805 0.93884 0.41644 -0.10500
C 	C 	0.54191 0.06116 0.58346 -0.10500
C 	C 	0.35833 0.44942 0.66770 -0.04500
C 	C 	0.64170 0.55056 0.33241 -0.04500
C 	C 	0.64164 0.94942 0.33227 -0.04600
C 	C 	0.35830 0.05056 0.66760 -0.04600
C 	C 	0.23886 0.47494 0.64504 -0.03100
C 	C 	0.76119 0.52504 0.35511 -0.03100
C 	C 	0.76112 0.97495 0.35494 -0.02900
C 	C 	0.23882 0.02503 0.64491 -0.02900
C 	C 	0.18709 0.52171 0.53468 -0.01700
C 	C 	0.81296 0.47830 0.46554 -0.01700
C 	C 	0.81289 0.02171 0.46532 -0.02000
C 	C 	0.18705 0.97829 0.53449 -0.02000
C 	C 	0.25867 0.54585 0.45524 -0.06700
C 	C 	0.74135 0.45419 0.54498 -0.06700
C 	C 	0.74132 0.04583 0.54479 -0.06600
C 	C 	0.25864 0.95418 0.45503 -0.06600
C 	C 	0.38297 0.52760 0.48605 0.04800
C 	C 	0.61704 0.47240 0.51407 0.04800
C 	C 	0.61701 0.02760 0.51394 0.04700
C 	C 	0.38295 0.97240 0.48593 0.04700
Cr	Cr	0.18761 0.75000 0.97986 1.53400
Cr	Cr	0.81239 0.25000 0.02014 1.53400
Cr	Cr	0.24581 0.75000 0.34164 1.53100
Cr	Cr	0.75419 0.25000 0.65836 1.53100
Cr	Cr	0.48576 0.75000 0.21991 1.52600
Cr	Cr	0.51424 0.25000 0.78009 1.52600
H 	H 	0.09151 0.53831 0.50866 0.02400
H 	H 	0.90855 0.46172 0.49162 0.02400
H 	H 	0.90848 0.03830 0.49136 0.02500
H 	H 	0.09146 0.96170 0.50843 0.02500
H 	H 	0.39284 0.41189 0.75296 0.04600
H 	H 	0.60721 0.58809 0.24713 0.04600
H 	H 	0.60714 0.91189 0.24702 0.04600
H 	H 	0.39279 0.08809 0.75287 0.04600
H 	H 	0.21684 0.57383 0.36180 0.06100
H 	H 	0.78316 0.42624 0.63851 0.06100
H 	H 	0.78315 0.07378 0.63832 0.06000
H 	H 	0.21683 0.92623 0.36150 0.06000
H 	H 	0.56580 0.02897 0.89507 0.02800
H 	H 	0.43409 0.97106 0.10483 0.02800
H 	H 	0.43420 0.52897 0.10491 0.02800
H 	H 	0.56590 0.47105 0.89515 0.02800
H 	H 	0.55915 0.08113 0.18360 0.09200
H 	H 	0.44097 0.91883 0.81646 0.09200
H 	H 	0.44088 0.58114 0.81642 0.09100
H 	H 	0.55903 0.41883 0.18354 0.09100
H 	H 	0.97625 0.04716 0.78283 0.09800
H 	H 	0.02362 0.95282 0.21713 0.09800
H 	H 	0.02370 0.54717 0.21717 0.09800
H 	H 	0.97636 0.45282 0.78286 0.09800
O 	O 	0.26771 0.66820 0.90211 -0.49200
O 	O 	0.73229 0.33180 0.09789 -0.49200
O 	O 	0.73229 0.16820 0.09789 -0.49200
O 	O 	0.26771 0.83180 0.90211 -0.49200
O 	O 	0.09948 0.67446 0.03885 -0.53100
O 	O 	0.90052 0.32554 0.96115 -0.53100
O 	O 	0.90052 0.17446 0.96115 -0.53000
O 	O 	0.09948 0.82554 0.03885 -0.53000
O 	O 	0.11672 0.66921 0.26766 -0.50500
O 	O 	0.88328 0.33079 0.73234 -0.50500
O 	O 	0.88328 0.16921 0.73234 -0.50500
O 	O 	0.11672 0.83079 0.26766 -0.50500
O 	O 	0.36671 0.67544 0.42759 -0.48400
O 	O 	0.63329 0.32456 0.57241 -0.48400
O 	O 	0.63329 0.17544 0.57241 -0.48400
O 	O 	0.36671 0.82456 0.42759 -0.48400
O 	O 	0.53487 0.66939 0.37176 -0.44100
O 	O 	0.46513 0.33061 0.62824 -0.44100
O 	O 	0.46513 0.16939 0.62824 -0.44100
O 	O 	0.53487 0.83061 0.37176 -0.44100
O 	O 	0.45308 0.67448 0.07516 -0.53100
O 	O 	0.54692 0.32552 0.92484 -0.53100
O 	O 	0.54692 0.17448 0.92484 -0.53000
O 	O 	0.45308 0.82552 0.07516 -0.53000
O 	O 	0.30639 0.75000 0.18047 -0.75800
O 	O 	0.69361 0.25000 0.81953 -0.75800
H 	H 	0.18520 0.45610 0.70935 0.03100
H 	H 	0.81486 0.54386 0.29081 0.03100
H 	H 	0.81477 0.95611 0.29062 0.03100
H 	H 	0.18515 0.04386 0.70922 0.03100
N 	N 	0.05797 0.07713 0.13253 -0.14300
H 	H 	0.11361 0.12054 0.13101 0.08300
C 	C 	0.97953 0.08742 0.21921 -0.08700
H 	H 	0.96363 0.14549 0.23036 0.02200
H 	H 	0.02718 0.06618 0.32614 0.04600
H 	H 	0.88892 0.05982 0.17429 0.05800
N 	N 	0.94202 0.92285 0.86745 -0.14300
H 	H 	0.88639 0.87943 0.86894 0.08300
C 	C 	0.02048 0.91259 0.78078 -0.08700
H 	H 	0.03641 0.85453 0.76962 0.02200
H 	H 	0.11107 0.94020 0.82572 0.05800
H 	H 	0.97283 0.93383 0.67385 0.04600
N 	N 	0.94204 0.57714 0.86747 -0.14300
H 	H 	0.88641 0.62056 0.86897 0.08300
C 	C 	0.02051 0.58741 0.78080 -0.08600
H 	H 	0.03645 0.64548 0.76967 0.02200
H 	H 	0.97283 0.56619 0.67384 0.04600
H 	H 	0.11109 0.55978 0.82571 0.05800
N 	N 	0.05797 0.42285 0.13256 -0.14300
H 	H 	0.11359 0.37943 0.13106 0.08300
C 	C 	0.97950 0.41259 0.21923 -0.08600
H 	H 	0.96356 0.35453 0.23037 0.02200
H 	H 	0.88892 0.44021 0.17430 0.05800
H 	H 	0.02717 0.43383 0.32617 0.04600
