data_crystal

_cell_length_a 7.74204
_cell_length_b 8.69918
_cell_length_c 27.49004
_cell_angle_alpha 86.78984
_cell_angle_beta  86.27241
_cell_angle_gamma 94.56406

_symmetry_space_group_name_	'P 1'
_symmetry_space_group_name_H-M	'P 1'

loop_
_symmetry_equiv_pos_as_xyz
  x,y,z

loop_
_atom_site_label
_atom_site_type_symbol
_atom_site_fract_x
_atom_site_fract_y
_atom_site_fract_z
_atom_site_charge
C 	C 	0.54600 0.79492 0.49786 0.35700
C 	C 	0.56898 0.69240 0.11783 -0.06200
C 	C 	0.50423 0.48556 0.64725 -0.11700
C 	C 	0.49941 0.52629 0.35241 -0.11400
C 	C 	0.54026 0.66418 0.01714 -0.00700
C 	C 	0.46085 0.36503 0.98318 -0.00800
C 	C 	0.50178 0.38089 0.03206 0.03400
C 	C 	0.49628 0.64804 0.96845 0.03400
C 	C 	0.53145 0.53031 0.04930 -0.01900
C 	C 	0.46914 0.49881 0.95116 -0.01800
C 	C 	0.60243 0.80681 0.03496 0.03400
C 	C 	0.45397 0.20503 0.50209 0.35700
C 	C 	0.40388 0.22205 0.96477 0.03400
C 	C 	0.60066 0.82255 0.08533 -0.02000
C 	C 	0.41650 0.20632 0.91433 -0.02000
C 	C 	0.50311 0.49991 0.59404 0.36400
C 	C 	0.49731 0.50235 0.40577 0.35900
C 	C 	0.46451 0.77521 0.93725 -0.05800
C 	C 	0.52974 0.25270 0.06332 -0.05800
C 	C 	0.56056 0.95868 0.48797 -0.05700
C 	C 	0.43923 0.04113 0.51184 -0.06400
C 	C 	0.41466 0.59385 0.82041 0.18300
C 	C 	0.44802 0.48327 0.90117 0.05400
C 	C 	0.58648 0.43241 0.17987 0.18500
C 	C 	0.47114 0.32913 0.83161 0.18000
C 	C 	0.55788 0.70263 0.16862 0.18100
C 	C 	0.35690 0.37157 0.72341 -0.02100
C 	C 	0.66597 0.63206 0.27809 -0.02200
C 	C 	0.36997 0.39061 0.67258 0.01400
C 	C 	0.64844 0.60613 0.32855 0.01300
C 	C 	0.63058 0.56672 0.67257 0.08100
C 	C 	0.36091 0.47255 0.32521 0.08000
C 	C 	0.62187 0.55012 0.72412 -0.03600
C 	C 	0.55634 0.54558 0.09917 0.05400
C 	C 	0.37650 0.49675 0.27375 -0.04000
C 	C 	0.48213 0.45413 0.74943 0.08500
C 	C 	0.53123 0.57451 0.25040 0.08900
C 	C 	0.75849 0.63907 0.75174 -0.02300
C 	C 	0.92810 0.56254 0.75033 -0.16200
C 	C 	0.22752 0.44175 0.24366 -0.02200
C 	C 	0.21728 0.26782 0.23650 -0.15500
C 	C 	0.83545 0.71105 0.25477 -0.03300
C 	C 	0.85084 0.88436 0.26164 -0.15400
C 	C 	0.20974 0.26668 0.75075 -0.04400
C 	C 	0.42834 0.61298 0.87006 -0.07600
C 	C 	0.06256 0.20489 0.72062 -0.15300
C 	C 	0.68097 0.02499 0.44364 -0.01500
C 	C 	0.70493 0.91466 0.40294 -0.15800
C 	C 	0.31818 0.97424 0.55600 -0.00900
C 	C 	0.29350 0.08380 0.59676 -0.16200
C 	C 	0.57003 0.41435 0.13036 -0.07900
C 	C 	0.42856 0.75809 0.88893 0.01400
C 	C 	0.56381 0.26882 0.11169 0.01300
C 	C 	0.44805 0.33743 0.88226 -0.06200
H 	H 	0.01392 0.38053 0.46693 0.08500
H 	H 	0.53005 0.13873 0.05069 0.06500
H 	H 	0.90248 0.44395 0.76755 0.07100
H 	H 	0.98444 0.55865 0.71237 0.07600
H 	H 	0.02349 0.62815 0.77141 0.07700
H 	H 	0.78064 0.76086 0.73696 0.05000
H 	H 	0.72026 0.64637 0.79080 0.04900
H 	H 	0.26423 0.20168 0.26800 0.08000
H 	H 	0.08038 0.22537 0.23214 0.06800
H 	H 	0.29411 0.24325 0.20285 0.07900
H 	H 	0.10356 0.46858 0.26207 0.04300
H 	H 	0.98584 0.61820 0.53359 0.08300
H 	H 	0.23456 0.50577 0.20738 0.04400
H 	H 	0.72794 0.93660 0.25474 0.08400
H 	H 	0.88534 0.90556 0.29927 0.06100
H 	H 	0.95624 0.94176 0.23601 0.06700
H 	H 	0.94521 0.66121 0.27201 0.03900
H 	H 	0.85290 0.69205 0.21528 0.05000
H 	H 	0.01026 0.29858 0.69848 0.06400
H 	H 	0.10899 0.11734 0.69636 0.06300
H 	H 	0.95498 0.14764 0.74557 0.06800
H 	H 	0.26410 0.16385 0.76732 0.06000
H 	H 	0.40885 0.85929 0.86589 0.04900
H 	H 	0.15172 0.32930 0.78097 0.04700
H 	H 	0.79263 0.82535 0.41327 0.07300
H 	H 	0.57739 0.85981 0.39395 0.07100
H 	H 	0.76593 0.98160 0.36993 0.06400
H 	H 	0.62673 0.12586 0.42541 0.05200
H 	H 	0.81030 0.06314 0.45614 0.05000
H 	H 	0.42106 0.13845 0.60581 0.07200
H 	H 	0.20570 0.17304 0.58642 0.07400
H 	H 	0.23238 0.01648 0.62973 0.06600
H 	H 	0.18913 0.93599 0.54334 0.05000
H 	H 	0.57953 0.16661 0.13477 0.04700
H 	H 	0.37246 0.87351 0.57430 0.05200
H 	H 	0.75528 0.64638 0.34939 0.03700
H 	H 	0.27376 0.33269 0.65188 0.03300
H 	H 	0.64089 0.93311 0.09883 0.05500
H 	H 	0.38226 0.09570 0.90012 0.05300
H 	H 	0.46287 0.88872 0.94996 0.06600
I 	I 	0.81746 0.73156 0.63294 -0.13100
I 	I 	0.13484 0.34369 0.36080 -0.13000
I 	I 	0.76323 0.97832 0.99076 -0.10500
I 	I 	0.23366 0.05330 0.00728 -0.10800
N 	N 	0.45432 0.45756 0.80151 -0.17100
N 	N 	0.56128 0.57167 0.19854 -0.17200
N 	N 	0.95032 0.45796 0.48688 -0.23500
N 	N 	0.04968 0.54204 0.51312 -0.23400
O 	O 	0.38925 0.73857 0.50322 -0.45100
O 	O 	0.62012 0.31109 0.20961 -0.20100
O 	O 	0.54106 0.84034 0.18774 -0.20200
O 	O 	0.51514 0.19644 0.81297 -0.20000
O 	O 	0.61075 0.26143 0.49678 -0.45200
O 	O 	0.67839 0.71163 0.49481 -0.44300
O 	O 	0.32161 0.28837 0.50519 -0.44400
O 	O 	0.35544 0.51344 0.57545 -0.44800
O 	O 	0.64456 0.48656 0.42455 -0.44500
O 	O 	0.64459 0.48650 0.56704 -0.43700
O 	O 	0.35541 0.51350 0.43296 -0.43400
O 	O 	0.37566 0.71309 0.79065 -0.19900
Zn	Zn	0.30694 0.51799 0.50562 1.22700
Zn	Zn	0.69306 0.48201 0.49438 1.22700
