data_crystal

_cell_length_a 6.93892
_cell_length_b 17.48575
_cell_length_c 19.47443
_cell_angle_alpha 108.58382
_cell_angle_beta  89.27917
_cell_angle_gamma 90.62607

_symmetry_space_group_name_	'P 1'
_symmetry_space_group_name_H-M	'P 1'

loop_
_symmetry_equiv_pos_as_xyz
  x,y,z

loop_
_atom_site_label
_atom_site_type_symbol
_atom_site_fract_x
_atom_site_fract_y
_atom_site_fract_z
_atom_site_charge
O 	O 	0.49433 0.41571 0.41372 -0.48200
O 	O 	0.81936 0.43007 0.56021 -0.49400
O 	O 	0.99432 0.58429 0.58628 -0.48700
C 	C 	0.64972 0.41507 0.58182 0.37600
O 	O 	0.82374 0.40629 0.41267 -0.48800
O 	O 	0.99873 0.56034 0.43769 -0.49100
C 	C 	0.65525 0.38316 0.38487 0.37000
O 	O 	0.48992 0.43966 0.56231 -0.48600
O 	O 	0.66233 0.55057 0.50838 -0.64900
V 	V 	0.93537 0.49062 0.49844 1.81200
O 	O 	0.32872 0.56993 0.43979 -0.49900
C 	C 	0.16070 0.58635 0.41941 0.38300
O 	O 	0.32434 0.59371 0.58733 -0.49500
C 	C 	0.15500 0.61697 0.61517 0.37200
V 	V 	0.43594 0.50938 0.50156 1.81200
O 	O 	0.15911 0.44943 0.49162 -0.64400
C 	C 	0.31214 0.72343 0.71843 -0.00500
H 	H 	0.45294 0.70381 0.69533 0.04200
C 	C 	0.30110 0.78724 0.78355 -0.00500
H 	H 	0.43388 0.81499 0.80855 0.04600
C 	C 	0.12141 0.81478 0.81581 -0.09000
C 	C 	0.95305 0.77692 0.78114 -0.00400
H 	H 	0.81225 0.79654 0.80422 0.04300
C 	C 	0.96409 0.71314 0.71601 -0.00400
H 	H 	0.83130 0.68541 0.69100 0.04500
C 	C 	0.14379 0.68549 0.68383 -0.09100
C 	C 	0.20489 0.60387 0.29917 -0.00000
C 	C 	0.15411 0.63825 0.37217 -0.11900
C 	C 	0.09384 0.72008 0.39835 0.06400
C 	C 	0.11960 0.76984 0.35274 -0.05200
C 	C 	0.14912 0.73108 0.27709 0.01000
C 	C 	0.19040 0.64805 0.25083 0.00600
C 	C 	0.11972 0.85609 0.37844 0.04300
C 	C 	0.10184 0.89863 0.32854 -0.08100
C 	C 	0.10638 0.85914 0.25388 0.02600
C 	C 	0.13929 0.77536 0.22752 -0.01000
C 	C 	0.16360 0.73623 0.15180 -0.01400
C 	C 	0.20322 0.65216 0.12640 0.02900
C 	C 	0.21859 0.60983 0.17650 -0.06800
C 	C 	0.09143 0.90357 0.20548 -0.01500
C 	C 	0.11162 0.86574 0.13080 -0.08200
C 	C 	0.14904 0.78269 0.10422 0.00000
H 	H 	0.24531 0.54077 0.27920 0.03200
H 	H 	0.09815 0.96400 0.34801 0.04800
H 	H 	0.06766 0.96815 0.22593 0.03900
H 	H 	0.16770 0.75560 0.04636 0.03500
H 	H 	0.25117 0.54591 0.15716 0.04100
C 	C 	0.77942 0.18629 0.86984 0.00200
C 	C 	0.62209 0.13487 0.86923 -0.09500
C 	C 	0.46686 0.13241 0.82291 -0.00800
C 	C 	0.46987 0.17874 0.77606 -0.00300
C 	C 	0.62889 0.22991 0.77629 0.01100
C 	C 	0.78310 0.23591 0.82495 -0.03200
C 	C 	0.31543 0.17496 0.72915 -0.03700
C 	C 	0.31804 0.22114 0.68230 -0.05000
C 	C 	0.47552 0.27173 0.68132 0.01800
C 	C 	0.63165 0.27600 0.72842 -0.02500
C 	C 	0.79013 0.32660 0.72774 0.02900
C 	C 	0.93914 0.33445 0.77715 -0.08200
C 	C 	0.93445 0.29223 0.82763 0.04400
C 	C 	0.47976 0.31816 0.63414 -0.02000
C 	C 	0.64053 0.36712 0.63215 -0.08000
C 	C 	0.79498 0.37078 0.67908 -0.02400
H 	H 	0.89637 0.18782 0.90639 0.04100
H 	H 	0.34422 0.09331 0.82255 0.04400
H 	H 	0.19185 0.13645 0.72893 0.03700
H 	H 	0.19673 0.21724 0.64680 0.04100
H 	H 	0.35994 0.31507 0.59813 0.05100
H 	H 	0.91788 0.40955 0.67878 0.04800
H 	H 	0.05634 0.37639 0.77830 0.04700
C 	C 	0.75607 0.24633 0.30370 -0.01500
H 	H 	0.85026 0.24046 0.34564 0.04600
C 	C 	0.74225 0.18265 0.23840 0.01500
H 	H 	0.82578 0.12869 0.23158 0.03800
C 	C 	0.62109 0.18780 0.18262 -0.11700
C 	C 	0.51788 0.26037 0.19259 0.07600
C 	C 	0.52620 0.32223 0.25993 -0.03800
H 	H 	0.44651 0.37747 0.26806 0.04800
C 	C 	0.64512 0.31593 0.31555 -0.06800
O 	O 	0.77494 0.06047 0.93780 -0.48300
O 	O 	0.44088 0.09373 0.08735 -0.49600
O 	O 	0.26613 0.93963 0.06228 -0.47900
C 	C 	0.60966 0.11780 0.11473 0.38500
O 	O 	0.44548 0.06996 0.93982 -0.49500
O 	O 	0.27077 0.91569 0.91369 -0.48800
C 	C 	0.61473 0.08512 0.91825 0.37700
O 	O 	0.77030 0.08441 0.08638 -0.48400
O 	O 	0.60260 0.94951 0.99167 -0.64700
V 	V 	0.32947 0.00937 0.00155 1.81200
O 	O 	0.94076 0.90616 0.91256 -0.49400
C 	C 	0.11014 0.88311 0.88464 0.37300
O 	O 	0.93615 0.92993 0.06010 -0.48500
C 	C 	0.10400 0.91435 0.08113 0.37200
V 	V 	0.82893 0.99045 0.99831 1.80900
O 	O 	0.10567 0.05049 0.00832 -0.65000
C 	C 	0.22977 0.60495 0.04681 -0.10400
C 	C 	0.43432 0.61569 0.02041 -0.02200
C 	C 	0.46098 0.56699 0.94055 -0.16000
H 	H 	0.43413 0.50183 0.93192 0.05400
H 	H 	0.36005 0.58824 0.90678 0.06100
H 	H 	0.61093 0.57470 0.92312 0.05800
H 	H 	0.46419 0.68032 0.02769 0.03900
H 	H 	0.54062 0.59483 0.05272 0.03000
H 	H 	0.20513 0.53960 0.03805 0.04400
H 	H 	0.11970 0.62238 0.01376 0.04700
C 	C 	0.08222 0.31543 0.88750 -0.11600
C 	C 	0.99213 0.36474 0.96078 -0.01200
C 	C 	0.88106 0.43842 0.95706 -0.16300
H 	H 	0.97291 0.47577 0.93290 0.05700
H 	H 	0.74906 0.41940 0.92416 0.05900
H 	H 	0.83670 0.47569 0.01252 0.05600
H 	H 	0.89581 0.32602 0.98156 0.02700
H 	H 	0.10810 0.38657 0.00088 0.01800
H 	H 	0.15227 0.26049 0.89178 0.05300
H 	H 	0.20066 0.35210 0.87446 0.05000
C 	C 	0.41424 0.27721 0.13106 -0.12400
C 	C 	0.55952 0.28801 0.07455 -0.00900
C 	C 	0.45937 0.31580 0.01773 -0.17100
H 	H 	0.33638 0.27496 0.99493 0.06800
H 	H 	0.40861 0.37863 0.04273 0.05600
H 	H 	0.56035 0.31461 0.97293 0.06300
H 	H 	0.67065 0.33366 0.10152 0.02900
H 	H 	0.63350 0.23027 0.04692 0.03700
H 	H 	0.30959 0.22827 0.10567 0.07200
H 	H 	0.32813 0.33335 0.15204 0.05300
C 	C 	0.96539 0.74583 0.46598 -0.10800
C 	C 	0.75554 0.71744 0.44856 -0.01800
C 	C 	0.65151 0.76527 0.40700 -0.16000
H 	H 	0.65280 0.83067 0.43795 0.05900
H 	H 	0.71922 0.75539 0.35297 0.07000
H 	H 	0.49971 0.74454 0.39874 0.06800
H 	H 	0.74913 0.65247 0.41643 0.05800
H 	H 	0.67633 0.72525 0.50030 0.04100
H 	H 	0.02161 0.72090 0.50752 0.05800
H 	H 	0.96153 0.81107 0.49326 0.05200
C 	C 	0.18679 0.90511 0.45375 -0.11000
C 	C 	0.03461 0.96585 0.49627 -0.03000
C 	C 	0.09230 0.00392 0.57532 -0.15200
H 	H 	0.10141 0.95695 0.60238 0.05400
H 	H 	0.23402 0.03504 0.57879 0.06000
H 	H 	0.98269 0.04889 0.60421 0.06100
H 	H 	0.01926 0.01479 0.47179 0.03300
H 	H 	0.89150 0.93634 0.49419 0.02900
H 	H 	0.23633 0.86586 0.48484 0.04800
H 	H 	0.31814 0.93958 0.44774 0.04900
