data_crystal

_cell_length_a 19.05657
_cell_length_b 10.97964
_cell_length_c 18.88198
_cell_angle_alpha 89.74562
_cell_angle_beta  90.22863
_cell_angle_gamma 89.82395

_symmetry_space_group_name_	'P 1'
_symmetry_space_group_name_H-M	'P 1'

loop_
_symmetry_equiv_pos_as_xyz
  x,y,z

loop_
_atom_site_label
_atom_site_type_symbol
_atom_site_fract_x
_atom_site_fract_y
_atom_site_fract_z
_atom_site_charge
C 	C 	0.73055 0.37686 0.64600 0.42200
C 	C 	0.28467 0.84428 0.45802 0.00400
C 	C 	0.94651 0.55283 0.48276 0.01200
C 	C 	0.42473 0.98209 0.60816 0.12200
C 	C 	0.43872 0.92752 0.45585 0.11300
C 	C 	0.92463 0.48225 0.60819 0.10700
C 	C 	0.93855 0.42750 0.45587 0.10100
C 	C 	0.87971 0.97683 0.92659 0.12100
C 	C 	0.12060 0.98149 0.07264 0.12200
C 	C 	0.37971 0.47680 0.92658 0.10800
C 	C 	0.62060 0.48147 0.07264 0.10900
C 	C 	0.85413 0.07360 0.07457 0.10100
C 	C 	0.19002 0.39802 0.53521 0.00700
C 	C 	0.14664 0.07552 0.92390 0.10200
C 	C 	0.35415 0.57357 0.07456 0.11200
C 	C 	0.64663 0.57551 0.92391 0.11100
C 	C 	0.62562 0.85273 0.07554 0.10200
C 	C 	0.37407 0.84841 0.92514 0.09900
C 	C 	0.12562 0.35274 0.07554 0.10200
C 	C 	0.87407 0.34840 0.92514 0.09900
C 	C 	0.63277 0.86384 0.41921 0.09300
C 	C 	0.34271 0.74606 0.56019 0.10800
C 	C 	0.13269 0.36368 0.41923 0.09300
C 	C 	0.78460 0.34425 0.45801 0.00400
C 	C 	0.84255 0.24590 0.56016 0.10800
C 	C 	0.89079 0.98051 0.44719 0.11900
C 	C 	0.18185 0.11068 0.58745 0.09900
C 	C 	0.39052 0.48135 0.44697 0.10900
C 	C 	0.68186 0.61072 0.58746 0.09700
C 	C 	0.69619 0.88712 0.46211 0.02500
C 	C 	0.29065 0.83455 0.53158 0.01800
C 	C 	0.19612 0.38716 0.46209 0.02400
C 	C 	0.79058 0.33450 0.53156 0.01900
C 	C 	0.76214 0.90506 0.43047 -0.11700
C 	C 	0.25161 0.91573 0.57503 -0.10600
C 	C 	0.26202 0.40533 0.43040 -0.12000
C 	C 	0.27261 0.37339 0.35600 0.41200
C 	C 	0.75158 0.41573 0.57502 -0.11500
C 	C 	0.82215 0.93207 0.47394 0.02500
C 	C 	0.21791 0.01741 0.54426 0.01600
C 	C 	0.32201 0.43262 0.47382 0.02700
C 	C 	0.71790 0.51744 0.54426 0.02500
C 	C 	0.81531 0.92615 0.54692 0.01300
C 	C 	0.21784 0.02993 0.47129 -0.00500
C 	C 	0.31526 0.42664 0.54680 0.00900
C 	C 	0.71786 0.52999 0.47129 0.00200
C 	C 	0.74950 0.91913 0.57735 -0.11100
C 	C 	0.23055 0.87686 0.64600 0.42000
C 	C 	0.25054 0.94311 0.42809 -0.10800
C 	C 	0.24949 0.41927 0.57730 -0.10900
C 	C 	0.75052 0.44314 0.42808 -0.11400
C 	C 	0.50303 0.05277 0.96390 0.00000
C 	C 	0.49463 0.05263 0.03578 -0.00300
C 	C 	0.00302 0.55277 0.96390 -0.01200
C 	C 	0.99462 0.55263 0.03578 0.02500
C 	C 	0.48997 0.16256 0.07287 -0.10500
C 	C 	0.50949 0.16274 0.92683 -0.10600
C 	C 	0.98997 0.66256 0.07287 -0.11600
C 	C 	0.77266 0.87328 0.35604 0.41200
C 	C 	0.00949 0.66274 0.92682 -0.09700
C 	C 	0.49493 0.27345 0.03625 0.00400
C 	C 	0.50622 0.27350 0.96339 0.00700
C 	C 	0.99493 0.77345 0.03625 0.02400
C 	C 	0.00622 0.77350 0.96339 -0.01200
C 	C 	0.53157 0.15615 0.64726 0.43600
C 	C 	0.44033 0.14978 0.36137 0.33800
C 	C 	0.03158 0.65615 0.64726 0.42000
C 	C 	0.94033 0.64977 0.36137 0.34300
C 	C 	0.81208 0.96452 0.96526 0.02000
C 	C 	0.56305 0.30716 0.44144 -0.07500
C 	C 	0.18827 0.96705 0.03426 0.01600
C 	C 	0.31208 0.46450 0.96526 0.02300
C 	C 	0.68827 0.46704 0.03427 0.01900
C 	C 	0.80673 0.98595 0.03821 0.02700
C 	C 	0.19375 0.98734 0.96109 0.02900
C 	C 	0.30673 0.48594 0.03821 0.01700
C 	C 	0.69375 0.48734 0.96109 0.02000
C 	C 	0.75164 0.92923 0.07667 -0.09900
C 	C 	0.24854 0.92876 0.92312 -0.10000
C 	C 	0.25164 0.42923 0.07667 -0.09800
C 	C 	0.58095 0.31611 0.51941 -0.09400
C 	C 	0.74854 0.42876 0.92313 -0.09900
C 	C 	0.69173 0.88756 0.03979 0.01900
C 	C 	0.30818 0.88584 0.96046 0.02200
C 	C 	0.19173 0.38757 0.03979 0.01700
C 	C 	0.80819 0.38584 0.96046 0.02200
C 	C 	0.69194 0.88936 0.96589 0.00000
C 	C 	0.30797 0.88860 0.03438 -0.00300
C 	C 	0.19194 0.38937 0.96589 -0.00000
C 	C 	0.80797 0.38861 0.03438 -0.00400
C 	C 	0.75130 0.92784 0.92815 -0.10700
C 	C 	0.06322 0.80689 0.44138 -0.09400
C 	C 	0.24879 0.92892 0.07178 -0.10700
C 	C 	0.25130 0.42783 0.92815 -0.10800
C 	C 	0.74879 0.42892 0.07178 -0.10700
C 	C 	0.74115 0.96840 0.64794 0.42400
C 	C 	0.25888 0.97251 0.35368 0.42200
C 	C 	0.24115 0.46842 0.64792 0.41300
C 	C 	0.75888 0.47252 0.35368 0.41500
C 	C 	0.73051 0.38151 0.85189 0.40800
C 	C 	0.26954 0.38166 0.14808 0.40600
C 	C 	0.23051 0.88151 0.85189 0.41000
C 	C 	0.08113 0.81582 0.51935 -0.07900
C 	C 	0.76954 0.88166 0.14808 0.40700
C 	C 	0.53383 0.15666 0.85417 0.41700
C 	C 	0.46606 0.15670 0.14573 0.41600
C 	C 	0.03383 0.65666 0.85417 0.41300
C 	C 	0.96606 0.65670 0.14573 0.42200
C 	C 	0.74162 0.97039 0.85469 0.41300
C 	C 	0.25844 0.97072 0.14525 0.41300
C 	C 	0.24162 0.47039 0.85468 0.40400
C 	C 	0.75844 0.47072 0.14525 0.40400
C 	C 	0.46187 0.15088 0.43576 -0.09600
C 	C 	0.69004 0.89806 0.53522 0.00900
C 	C 	0.49302 0.16855 0.58120 -0.13900
C 	C 	0.96192 0.65082 0.43575 -0.10700
C 	C 	0.99308 0.66852 0.58118 -0.11000
C 	C 	0.49408 0.25377 0.46292 0.04900
C 	C 	0.51100 0.26108 0.53395 0.07200
C 	C 	0.99422 0.75362 0.46288 0.07800
C 	C 	0.01115 0.76093 0.53390 0.03900
C 	C 	0.45306 0.07055 0.55649 0.03100
C 	C 	0.44653 0.05285 0.48276 -0.00300
C 	C 	0.95305 0.57057 0.55649 0.03000
Cr	Cr	0.77195 0.16948 0.75010 1.53900
Cr	Cr	0.38341 0.01062 0.24939 1.53100
Cr	Cr	0.11659 0.51062 0.75061 1.53700
Cr	Cr	0.88341 0.51062 0.24939 1.53400
Cr	Cr	0.22805 0.16948 0.24990 1.53800
Cr	Cr	0.27195 0.66948 0.75010 1.53900
Cr	Cr	0.72805 0.66948 0.24990 1.53900
Cr	Cr	0.61493 0.32334 0.74917 1.53800
Cr	Cr	0.38507 0.32334 0.25083 1.53500
Cr	Cr	0.11493 0.82334 0.74917 1.53800
Cr	Cr	0.88507 0.82334 0.25083 1.53600
Cr	Cr	0.61659 0.01062 0.75061 1.53500
H 	H 	0.44241 0.88863 0.60778 0.03100
H 	H 	0.16965 0.14333 0.88913 0.01800
H 	H 	0.33144 0.64137 0.10935 0.01700
H 	H 	0.66963 0.64328 0.88910 0.01900
H 	H 	0.58603 0.80232 0.04658 0.03200
H 	H 	0.41314 0.79668 0.95455 0.03400
H 	H 	0.08603 0.30233 0.04659 0.02900
H 	H 	0.91313 0.29665 0.95455 0.03500
H 	H 	0.64417 0.86604 0.93773 0.04400
H 	H 	0.35556 0.86420 0.06279 0.04400
H 	H 	0.14417 0.36606 0.93773 0.04300
H 	H 	0.40901 0.90780 0.40894 0.02300
H 	H 	0.85557 0.36421 0.06279 0.04300
H 	H 	0.05735 0.89717 0.41513 0.07000
H 	H 	0.12559 0.75589 0.53556 0.05800
H 	H 	0.55715 0.39743 0.41518 0.06700
H 	H 	0.62545 0.25626 0.53562 0.06100
H 	H 	0.59682 0.24132 0.41253 0.05800
H 	H 	0.58365 0.41140 0.53856 0.08100
H 	H 	0.09694 0.74100 0.41247 0.06200
H 	H 	0.08389 0.91110 0.53850 0.07900
H 	H 	0.63818 0.89676 0.55861 0.06500
H 	H 	0.94225 0.38877 0.60789 0.03500
H 	H 	0.31120 0.78028 0.42363 0.04800
H 	H 	0.13818 0.39653 0.55866 0.06200
H 	H 	0.81110 0.28023 0.42361 0.04700
H 	H 	0.62328 0.91522 0.37085 0.02800
H 	H 	0.35916 0.74199 0.61474 0.02200
H 	H 	0.12331 0.41454 0.37066 0.02400
H 	H 	0.85919 0.24211 0.61465 0.02200
H 	H 	0.89509 0.02944 0.39761 0.02200
H 	H 	0.20253 0.13506 0.63912 0.02400
H 	H 	0.39451 0.53083 0.39754 0.03000
H 	H 	0.90895 0.40789 0.40889 0.02500
H 	H 	0.70252 0.63504 0.63914 0.02700
H 	H 	0.86039 0.94397 0.58051 0.06500
H 	H 	0.19390 0.11053 0.44831 0.06500
H 	H 	0.36036 0.44467 0.58033 0.06300
H 	H 	0.69395 0.61062 0.44832 0.06400
H 	H 	0.50740 0.96527 0.93807 0.05700
H 	H 	0.48907 0.96499 0.06162 0.05700
H 	H 	0.00739 0.46527 0.93807 0.05300
H 	H 	0.98906 0.46499 0.06162 0.04800
H 	H 	0.48914 0.35908 0.06363 0.06100
H 	H 	0.89234 0.91100 0.88581 0.02300
H 	H 	0.51349 0.35914 0.93600 0.06100
H 	H 	0.98915 0.85908 0.06363 0.06000
H 	H 	0.01349 0.85914 0.93600 0.06400
H 	H 	0.10762 0.91665 0.11410 0.01700
H 	H 	0.39237 0.41087 0.88586 0.02200
H 	H 	0.60761 0.41660 0.11409 0.02100
H 	H 	0.83140 0.14148 0.10930 0.01800
O 	O 	0.78751 0.04261 0.67041 -0.48300
O 	O 	0.45425 0.05107 0.16944 -0.47700
O 	O 	0.04575 0.55107 0.83056 -0.47300
O 	O 	0.95425 0.55107 0.16944 -0.47300
O 	O 	0.68121 0.95915 0.82532 -0.51700
O 	O 	0.31879 0.95915 0.17468 -0.51700
O 	O 	0.18121 0.45915 0.82532 -0.52000
O 	O 	0.81879 0.45915 0.17468 -0.51900
O 	O 	0.66782 0.16781 0.74996 -0.74500
O 	O 	0.33218 0.16781 0.25004 -0.75100
O 	O 	0.16782 0.66781 0.74996 -0.74400
O 	O 	0.21249 0.04261 0.32959 -0.49200
O 	O 	0.83218 0.66781 0.25004 -0.75000
O 	O 	0.76567 0.29209 0.67509 -0.52100
O 	O 	0.23433 0.29209 0.32491 -0.51400
O 	O 	0.26567 0.79209 0.67509 -0.52000
O 	O 	0.73433 0.79209 0.32491 -0.51200
O 	O 	0.67022 0.40902 0.66856 -0.47700
O 	O 	0.32978 0.40902 0.33144 -0.48800
O 	O 	0.17022 0.90902 0.66856 -0.47400
O 	O 	0.82978 0.90902 0.33144 -0.48500
O 	O 	0.55658 0.25159 0.67498 -0.52700
O 	O 	0.28751 0.54261 0.67041 -0.47500
O 	O 	0.44342 0.25159 0.32502 -0.48900
O 	O 	0.05658 0.75159 0.67498 -0.52300
O 	O 	0.94342 0.75159 0.32502 -0.48800
O 	O 	0.54589 0.04967 0.67003 -0.47900
O 	O 	0.45411 0.04967 0.32997 -0.45000
O 	O 	0.04589 0.54967 0.67003 -0.47500
O 	O 	0.95411 0.54967 0.32997 -0.44600
O 	O 	0.68134 0.95786 0.67650 -0.51900
O 	O 	0.31866 0.95786 0.32350 -0.52600
O 	O 	0.18134 0.45786 0.67650 -0.52200
O 	O 	0.71249 0.54261 0.32959 -0.48400
O 	O 	0.81866 0.45786 0.32350 -0.52900
O 	O 	0.78738 0.04401 0.83094 -0.47800
O 	O 	0.21262 0.04401 0.16906 -0.47700
O 	O 	0.28738 0.54401 0.83094 -0.46900
O 	O 	0.71262 0.54401 0.16906 -0.46800
O 	O 	0.76554 0.29339 0.82391 -0.49600
O 	O 	0.23446 0.29339 0.17609 -0.50000
O 	O 	0.26554 0.79339 0.82391 -0.49600
O 	O 	0.73446 0.79339 0.17609 -0.50000
O 	O 	0.67009 0.41041 0.82909 -0.47000
O 	O 	0.55645 0.25289 0.82379 -0.51700
O 	O 	0.32991 0.41041 0.17091 -0.47300
O 	O 	0.17009 0.91041 0.82909 -0.46900
O 	O 	0.82991 0.91041 0.17091 -0.47000
O 	O 	0.38541 0.01630 0.65496 -0.19700
O 	O 	0.46996 0.84374 0.48446 -0.16100
O 	O 	0.88529 0.51663 0.65494 -0.18400
O 	O 	0.96951 0.34354 0.48462 -0.15700
O 	O 	0.91897 0.06287 0.93546 -0.17600
O 	O 	0.08157 0.06802 0.06257 -0.18300
O 	O 	0.41892 0.56293 0.93537 -0.16900
O 	O 	0.44355 0.25289 0.17621 -0.51500
O 	O 	0.58158 0.56803 0.06261 -0.17100
O 	O 	0.91785 0.06502 0.07115 -0.17300
O 	O 	0.08290 0.06738 0.92675 -0.17700
O 	O 	0.41787 0.56506 0.07107 -0.17500
O 	O 	0.58289 0.56740 0.92678 -0.17400
O 	O 	0.61252 0.88619 0.13564 -0.18900
O 	O 	0.38766 0.88119 0.86487 -0.18300
O 	O 	0.11252 0.38621 0.13565 -0.19500
O 	O 	0.88766 0.38119 0.86487 -0.18300
O 	O 	0.59280 0.78210 0.43550 -0.16100
O 	O 	0.05645 0.75289 0.82379 -0.51600
O 	O 	0.37511 0.68130 0.52046 -0.17400
O 	O 	0.09254 0.28240 0.43583 -0.16600
O 	O 	0.87462 0.18063 0.52043 -0.17600
O 	O 	0.94269 0.98256 0.48518 -0.17400
O 	O 	0.12706 0.15691 0.56700 -0.18000
O 	O 	0.44259 0.48289 0.48472 -0.17800
O 	O 	0.62709 0.65702 0.56699 -0.17500
O 	O 	0.94355 0.75289 0.17621 -0.51400
O 	O 	0.54575 0.05107 0.83056 -0.47500
