data_crystal

_cell_length_a 7.22334
_cell_length_b 12.14010
_cell_length_c 29.09774
_cell_angle_alpha 89.99937
_cell_angle_beta  89.98642
_cell_angle_gamma 90.23343

_symmetry_space_group_name_	'P 1'
_symmetry_space_group_name_H-M	'P 1'

loop_
_symmetry_equiv_pos_as_xyz
  x,y,z

loop_
_atom_site_label
_atom_site_type_symbol
_atom_site_fract_x
_atom_site_fract_y
_atom_site_fract_z
_atom_site_charge
O 	O 	0.64717 0.84918 0.20122 -0.46800
O 	O 	0.35283 0.15082 0.79878 -0.46800
O 	O 	0.35283 0.15082 0.70122 -0.46900
O 	O 	0.64717 0.84918 0.29878 -0.46900
O 	O 	0.14717 0.65082 0.29878 -0.47100
O 	O 	0.85283 0.34918 0.70122 -0.47100
O 	O 	0.85283 0.34918 0.79878 -0.47100
O 	O 	0.14717 0.65082 0.20122 -0.47100
O 	O 	0.31743 0.86221 0.29845 -0.47500
O 	O 	0.68257 0.13779 0.70155 -0.47500
O 	O 	0.68257 0.13779 0.79845 -0.47500
O 	O 	0.31743 0.86221 0.20155 -0.47500
O 	O 	0.81743 0.63779 0.20155 -0.47500
O 	O 	0.18257 0.36221 0.79845 -0.47500
O 	O 	0.18257 0.36221 0.70155 -0.47400
O 	O 	0.81743 0.63779 0.29845 -0.47400
H 	H 	0.96303 0.22462 0.45507 0.04700
H 	H 	0.03697 0.77538 0.54493 0.04700
H 	H 	0.03438 0.77548 0.95504 0.04700
H 	H 	0.96562 0.22452 0.04496 0.04700
H 	H 	0.53848 0.27507 0.04522 0.04700
H 	H 	0.46152 0.72493 0.95478 0.04700
H 	H 	0.46393 0.72482 0.54522 0.04700
H 	H 	0.53607 0.27518 0.45478 0.04700
C 	C 	0.48603 0.88777 0.31333 0.34200
C 	C 	0.51397 0.11223 0.68668 0.34200
C 	C 	0.51394 0.11223 0.81332 0.34200
C 	C 	0.48606 0.88777 0.18668 0.34200
C 	C 	0.98546 0.61219 0.18666 0.34400
C 	C 	0.01454 0.38781 0.81334 0.34400
C 	C 	0.01457 0.38781 0.68666 0.34400
C 	C 	0.98543 0.61219 0.31334 0.34400
H 	H 	0.03690 0.60964 0.69114 0.03000
H 	H 	0.96310 0.39036 0.30886 0.03000
H 	H 	0.96489 0.39030 0.19116 0.03000
H 	H 	0.03511 0.60970 0.80884 0.03000
H 	H 	0.48285 0.89070 0.80863 0.03000
H 	H 	0.51715 0.10930 0.19137 0.03000
H 	H 	0.51551 0.10938 0.30862 0.03000
H 	H 	0.48449 0.89062 0.69137 0.03000
H 	H 	0.95783 0.26094 0.37344 0.05200
H 	H 	0.04217 0.73906 0.62656 0.05200
H 	H 	0.03960 0.73916 0.87342 0.05200
H 	H 	0.96040 0.26084 0.12659 0.05200
H 	H 	0.53475 0.23864 0.12685 0.05200
H 	H 	0.46525 0.76136 0.87314 0.05200
H 	H 	0.46761 0.76125 0.62686 0.05200
H 	H 	0.53239 0.23875 0.37314 0.05200
O 	O 	0.48063 0.68063 0.25000 -0.61400
O 	O 	0.51937 0.31937 0.75000 -0.61400
O 	O 	0.98063 0.81937 0.25000 -0.61100
O 	O 	0.01937 0.18063 0.75000 -0.61100
V 	V 	0.20580 0.76286 0.25000 1.79400
V 	V 	0.79420 0.23714 0.75000 1.79400
V 	V 	0.70580 0.73714 0.25000 1.79500
V 	V 	0.29420 0.26286 0.75000 1.79500
H 	H 	0.97415 0.28350 0.53258 0.03900
H 	H 	0.02585 0.71650 0.46742 0.03900
H 	H 	0.02392 0.71659 0.03256 0.03900
H 	H 	0.97608 0.28341 0.96744 0.03900
H 	H 	0.53113 0.21647 0.96764 0.04000
H 	H 	0.46887 0.78353 0.03236 0.04000
H 	H 	0.47067 0.78344 0.46765 0.04000
H 	H 	0.52933 0.21656 0.53235 0.04000
C 	C 	0.99120 0.53441 0.35171 -0.08700
C 	C 	0.00880 0.46559 0.64829 -0.08700
C 	C 	0.00864 0.46558 0.85171 -0.08700
C 	C 	0.99136 0.53442 0.14829 -0.08700
C 	C 	0.49509 0.96532 0.14828 -0.08900
C 	C 	0.50491 0.03467 0.85172 -0.08900
C 	C 	0.50507 0.03467 0.64828 -0.08900
C 	C 	0.49493 0.96533 0.35172 -0.08900
C 	C 	0.97089 0.34834 0.38043 -0.07300
C 	C 	0.02911 0.65166 0.61957 -0.07300
C 	C 	0.02740 0.65171 0.88041 -0.07300
C 	C 	0.97260 0.34829 0.11958 -0.07300
C 	C 	0.52175 0.15128 0.11976 -0.07400
C 	C 	0.47825 0.84872 0.88024 -0.07400
C 	C 	0.47983 0.84865 0.61976 -0.07400
C 	C 	0.52017 0.15135 0.38024 -0.07400
C 	C 	0.97434 0.42157 0.34364 0.02600
C 	C 	0.02566 0.57843 0.65636 0.02600
C 	C 	0.02440 0.57846 0.84362 0.02600
C 	C 	0.97560 0.42154 0.15638 0.02600
C 	C 	0.51175 0.07809 0.15651 0.02600
C 	C 	0.48825 0.92191 0.84349 0.02600
C 	C 	0.48942 0.92186 0.65651 0.02600
C 	C 	0.51058 0.07814 0.34349 0.02600
C 	C 	0.00352 0.57436 0.39672 0.00300
C 	C 	0.99648 0.42564 0.60328 0.00300
C 	C 	0.99694 0.42560 0.89673 0.00300
C 	C 	0.00307 0.57440 0.10327 0.00300
C 	C 	0.48874 0.92540 0.10319 0.00700
C 	C 	0.51126 0.07460 0.89681 0.00700
C 	C 	0.51085 0.07462 0.60319 0.00700
C 	C 	0.48915 0.92537 0.39681 0.00700
C 	C 	0.99728 0.50194 0.43493 -0.01900
C 	C 	0.00272 0.49806 0.56507 -0.01900
C 	C 	0.00264 0.49805 0.93493 -0.01900
C 	C 	0.99736 0.50195 0.06507 -0.01900
C 	C 	0.49916 0.99786 0.06506 -0.02200
C 	C 	0.50084 0.00214 0.93494 -0.02200
C 	C 	0.50093 0.00214 0.56506 -0.02200
C 	C 	0.49907 0.99786 0.43494 -0.02200
C 	C 	0.98150 0.38734 0.42580 0.04100
C 	C 	0.01850 0.61265 0.57420 0.04100
C 	C 	0.01733 0.61269 0.92579 0.04100
C 	C 	0.98267 0.38731 0.07421 0.04100
C 	C 	0.51557 0.11237 0.07432 0.04100
C 	C 	0.48443 0.88763 0.92568 0.04100
C 	C 	0.48552 0.88759 0.57433 0.04200
C 	C 	0.51448 0.11241 0.42567 0.04200
C 	C 	0.00426 0.53924 0.48164 0.00500
C 	C 	0.99574 0.46076 0.51836 0.00500
C 	C 	0.99607 0.46074 0.98164 0.00500
C 	C 	0.00393 0.53926 0.01836 0.00500
C 	C 	0.49423 0.96072 0.01832 0.00600
C 	C 	0.50577 0.03928 0.98168 0.00600
C 	C 	0.50547 0.03929 0.51832 0.00600
C 	C 	0.49453 0.96071 0.48168 0.00600
C 	C 	0.98128 0.34770 0.50715 -0.03200
C 	C 	0.01872 0.65230 0.49285 -0.03200
C 	C 	0.01734 0.65236 0.00714 -0.03200
C 	C 	0.98266 0.34764 0.99286 -0.03200
C 	C 	0.52160 0.15222 0.99300 -0.03200
C 	C 	0.47839 0.84778 0.00700 -0.03200
C 	C 	0.47968 0.84772 0.49301 -0.03200
C 	C 	0.52032 0.15228 0.50699 -0.03200
C 	C 	0.97477 0.31221 0.46188 -0.05700
C 	C 	0.02523 0.68780 0.53812 -0.05700
C 	C 	0.02346 0.68786 0.96187 -0.05600
C 	C 	0.97654 0.31214 0.03813 -0.05600
C 	C 	0.52606 0.18755 0.03831 -0.05700
C 	C 	0.47394 0.81244 0.96169 -0.05700
C 	C 	0.47559 0.81237 0.53832 -0.05700
C 	C 	0.52441 0.18763 0.46168 -0.05700
H 	H 	0.98534 0.33762 0.59956 0.03500
H 	H 	0.01466 0.66238 0.40044 0.03500
H 	H 	0.01341 0.66246 0.09954 0.03500
H 	H 	0.98659 0.33754 0.90046 0.03500
H 	H 	0.52389 0.16253 0.90062 0.03500
H 	H 	0.47611 0.83747 0.09938 0.03500
H 	H 	0.47723 0.83741 0.40062 0.03500
H 	H 	0.52277 0.16259 0.59938 0.03500
