data_crystal

_cell_length_a 10.65759
_cell_length_b 9.88631
_cell_length_c 10.66759
_cell_angle_alpha 90.12476
_cell_angle_beta  91.17452
_cell_angle_gamma 90.25301

_symmetry_space_group_name_	'P 1'
_symmetry_space_group_name_H-M	'P 1'

loop_
_symmetry_equiv_pos_as_xyz
  x,y,z

loop_
_atom_site_label
_atom_site_type_symbol
_atom_site_fract_x
_atom_site_fract_y
_atom_site_fract_z
_atom_site_charge
C 	C 	0.26009 0.49979 0.50026 0.36300
C 	C 	0.54651 0.36064 0.92910 -0.01400
C 	C 	0.06538 0.40327 0.57255 -0.01000
C 	C 	0.06294 0.59643 0.43055 -0.00700
C 	C 	0.93649 0.40326 0.57264 0.00400
C 	C 	0.93431 0.59773 0.43195 0.00400
C 	C 	0.87213 0.50073 0.50245 -0.10900
C 	C 	0.12758 0.49975 0.50124 -0.10100
C 	C 	0.59136 0.07222 0.56280 0.00900
C 	C 	0.59172 0.92896 0.56222 0.00400
C 	C 	0.40855 0.92739 0.43503 0.06600
C 	C 	0.40769 0.07283 0.43646 0.06900
C 	C 	0.50503 0.49928 0.25827 0.32500
C 	C 	0.73978 0.50023 0.50124 0.37100
C 	C 	0.50443 0.50082 0.74246 0.37000
C 	C 	0.59460 0.61207 0.07774 -0.11900
C 	C 	0.37160 0.51831 0.07346 -0.12100
C 	C 	0.60681 0.61104 0.93310 0.14400
C 	C 	0.36669 0.53062 0.92862 0.14900
C 	C 	0.55634 0.36109 0.07199 -0.07300
C 	C 	0.50712 0.49768 0.12233 -0.01800
C 	C 	0.50555 0.50373 0.87987 -0.14500
H 	H 	0.68758 0.59976 0.12559 0.06000
H 	H 	0.31443 0.43065 0.10521 0.06200
H 	H 	0.55780 0.71083 0.10959 0.06200
H 	H 	0.32977 0.60822 0.11765 0.06000
H 	H 	0.65574 0.34619 0.10289 0.04800
H 	H 	0.50065 0.27447 0.10810 0.05100
H 	H 	0.63800 0.32931 0.89021 0.03500
H 	H 	0.47749 0.28156 0.89908 0.04100
H 	H 	0.11636 0.32878 0.62754 0.03300
H 	H 	0.11157 0.66830 0.37259 0.03400
H 	H 	0.88721 0.32887 0.62788 0.03100
H 	H 	0.88343 0.67178 0.37622 0.03300
H 	H 	0.66487 0.12665 0.61322 0.01800
H 	H 	0.66624 0.87572 0.61109 0.01600
N 	N 	0.49997 0.85720 0.49997 -0.23300
N 	N 	0.49997 0.14280 0.49997 -0.23300
O 	O 	0.31675 0.61462 0.49999 -0.45100
O 	O 	0.31675 0.38538 0.49999 -0.45100
O 	O 	0.49997 0.61467 0.31479 -0.43900
O 	O 	0.49997 0.38533 0.31479 -0.44100
O 	O 	0.68322 0.61471 0.50001 -0.46000
O 	O 	0.68322 0.38529 0.50001 -0.45900
O 	O 	0.50001 0.61466 0.68520 -0.45500
O 	O 	0.50001 0.38534 0.68520 -0.45600
Zn	Zn	0.49998 0.65312 0.50000 1.22500
Zn	Zn	0.49998 0.34688 0.50000 1.22500
N 	N 	0.31215 0.85329 0.37178 -0.15000
H 	H 	0.22523 0.86571 0.41034 0.08200
C 	C 	0.31100 0.85891 0.23628 -0.08700
H 	H 	0.28797 0.96099 0.20114 0.04200
H 	H 	0.23743 0.78939 0.19878 0.04200
H 	H 	0.40351 0.82954 0.20022 0.05000
N 	N 	0.31682 0.14807 0.36679 -0.15100
H 	H 	0.33733 0.16934 0.27494 0.07900
C 	C 	0.18560 0.13449 0.39722 -0.08300
H 	H 	0.13808 0.06057 0.33385 0.04100
H 	H 	0.13847 0.23284 0.38189 0.05800
H 	H 	0.17437 0.10394 0.49661 0.04900
N 	N 	0.58372 0.74892 0.88411 -0.19000
H 	H 	0.63010 0.76245 0.79983 0.09000
H 	H 	0.62412 0.82178 0.94385 0.07300
N 	N 	0.31866 0.66574 0.89464 -0.19900
H 	H 	0.31889 0.68151 0.79802 0.09900
H 	H 	0.36701 0.74340 0.94139 0.08800
N 	N 	0.73447 0.56880 0.90090 -0.15500
H 	H 	0.74257 0.52500 0.81361 0.08200
C 	C 	0.83823 0.66074 0.92822 -0.08500
H 	H 	0.92544 0.60158 0.94028 0.04200
H 	H 	0.82439 0.71941 0.01552 0.04000
H 	H 	0.85023 0.73241 0.84927 0.04200
N 	N 	0.27838 0.42823 0.87850 -0.15400
H 	H 	0.29213 0.39776 0.78757 0.09000
C 	C 	0.14579 0.44773 0.90040 -0.08300
H 	H 	0.10812 0.52648 0.83597 0.04700
H 	H 	0.12867 0.47788 0.99879 0.04300
H 	H 	0.09446 0.35171 0.88119 0.04100
