data_crystal

_cell_length_a 10.99056
_cell_length_b 9.72773
_cell_length_c 15.05103
_cell_angle_alpha 90.67296
_cell_angle_beta  91.71247
_cell_angle_gamma 90.24847

_symmetry_space_group_name_	'P 1'
_symmetry_space_group_name_H-M	'P 1'

loop_
_symmetry_equiv_pos_as_xyz
  x,y,z

loop_
_atom_site_label
_atom_site_type_symbol
_atom_site_fract_x
_atom_site_fract_y
_atom_site_fract_z
_atom_site_charge
C 	C 	0.26264 0.49986 0.49727 0.31500
C 	C 	0.73738 0.50047 0.49798 0.31300
C 	C 	0.27880 0.52834 0.04345 -0.07200
C 	C 	0.71274 0.44297 0.95688 -0.07300
C 	C 	0.06242 0.37518 0.49556 0.06500
C 	C 	0.93758 0.62733 0.49012 0.05900
C 	C 	0.93542 0.37601 0.48847 0.06300
C 	C 	0.06422 0.62538 0.48221 0.06300
C 	C 	0.87185 0.50163 0.49358 -0.10200
C 	C 	0.12818 0.50014 0.49213 -0.10300
C 	C 	0.49124 0.07131 0.42206 0.07600
C 	C 	0.49825 0.92977 0.57781 0.06000
C 	C 	0.52327 0.07508 0.57686 0.07800
C 	C 	0.50708 0.92574 0.42244 0.05900
C 	C 	0.49755 0.49919 0.32983 0.31900
C 	C 	0.50084 0.50052 0.67032 0.32000
C 	C 	0.60672 0.47754 0.81500 0.08500
C 	C 	0.38815 0.51132 0.18590 0.08300
C 	C 	0.49816 0.50062 0.76691 -0.11000
C 	C 	0.49841 0.49680 0.23347 -0.11000
C 	C 	0.38693 0.51587 0.80949 0.02500
C 	C 	0.60824 0.47453 0.19052 0.02400
C 	C 	0.38461 0.51518 0.90382 -0.03600
C 	C 	0.60972 0.47261 0.09636 -0.03600
C 	C 	0.49571 0.49202 0.95300 0.00700
C 	C 	0.49775 0.49130 0.04734 0.00700
C 	C 	0.60529 0.46949 0.90809 -0.01600
C 	C 	0.38757 0.50943 0.09240 -0.01600
C 	C 	0.27593 0.53497 0.95122 0.06700
C 	C 	0.71804 0.45069 0.04895 0.06700
Cu	Cu	0.50000 0.64066 0.50000 0.91700
Cu	Cu	0.50000 0.35934 0.50000 0.91600
H 	H 	0.19366 0.54350 0.07618 0.04300
H 	H 	0.79675 0.42052 0.92426 0.04400
N 	N 	0.50000 0.85207 0.50000 -0.18900
N 	N 	0.50000 0.14793 0.50000 -0.19400
O 	O 	0.31964 0.61874 0.49999 -0.36000
O 	O 	0.68036 0.38126 0.50001 -0.36200
O 	O 	0.68036 0.61874 0.50001 -0.36600
O 	O 	0.31964 0.38126 0.49999 -0.35800
O 	O 	0.49997 0.61880 0.37026 -0.37100
O 	O 	0.50003 0.38120 0.62974 -0.37100
O 	O 	0.50003 0.61880 0.62974 -0.37500
O 	O 	0.49997 0.38120 0.37026 -0.37000
N 	N 	0.71734 0.46640 0.76822 -0.14300
H 	H 	0.76507 0.37709 0.77958 0.07700
C 	C 	0.79283 0.58867 0.77239 -0.08700
H 	H 	0.83134 0.60711 0.84042 0.04100
H 	H 	0.73823 0.67994 0.75305 0.04700
H 	H 	0.86994 0.57561 0.72713 0.04900
N 	N 	0.27780 0.51901 0.23344 -0.14300
H 	H 	0.21038 0.45207 0.21097 0.07600
C 	C 	0.23470 0.65666 0.25107 -0.08900
H 	H 	0.22127 0.71443 0.18837 0.04100
H 	H 	0.30037 0.71320 0.29548 0.06200
H 	H 	0.14617 0.65058 0.28432 0.04800
C 	C 	0.27698 0.52637 0.75397 0.07700
N 	N 	0.18965 0.53445 0.70944 -0.11700
C 	C 	0.71665 0.44975 0.24543 0.07500
N 	N 	0.80295 0.42992 0.28922 -0.11600
N 	N 	0.16228 0.56450 0.90794 -0.14300
H 	H 	0.09028 0.50952 0.93229 0.07400
C 	C 	0.13581 0.70976 0.90214 -0.08400
H 	H 	0.05077 0.72443 0.86174 0.04200
H 	H 	0.21086 0.76482 0.86951 0.04700
H 	H 	0.12334 0.75439 0.96956 0.03800
N 	N 	0.83468 0.43960 0.09194 -0.14300
H 	H 	0.88799 0.36289 0.06584 0.07500
C 	C 	0.89997 0.56887 0.10063 -0.08400
H 	H 	0.98522 0.55366 0.14064 0.04300
H 	H 	0.84410 0.64679 0.13515 0.04700
H 	H 	0.92343 0.60755 0.03406 0.03800
N 	N 	0.12366 0.24809 0.50886 -0.12900
H 	H 	0.09745 0.19172 0.56257 0.08000
C 	C 	0.14942 0.16862 0.42999 -0.08400
H 	H 	0.07512 0.09405 0.41428 0.04000
H 	H 	0.23400 0.10991 0.44295 0.05500
H 	H 	0.16204 0.23646 0.37209 0.05500
N 	N 	0.87644 0.75622 0.49206 -0.13100
H 	H 	0.90818 0.83179 0.45129 0.07000
C 	C 	0.84767 0.80648 0.57958 -0.08800
H 	H 	0.92970 0.84696 0.61574 0.03800
H 	H 	0.80754 0.72414 0.61873 0.05900
H 	H 	0.77827 0.88751 0.57269 0.04500
N 	N 	0.87260 0.25227 0.46436 -0.12900
H 	H 	0.89403 0.21000 0.40375 0.08300
C 	C 	0.85359 0.15407 0.53364 -0.08400
H 	H 	0.92264 0.07209 0.53078 0.03900
H 	H 	0.76330 0.10580 0.52151 0.05500
H 	H 	0.85745 0.20376 0.60058 0.05000
N 	N 	0.12661 0.74922 0.46133 -0.13100
H 	H 	0.09581 0.79857 0.40483 0.06900
C 	C 	0.15751 0.84062 0.53501 -0.08500
H 	H 	0.09244 0.92681 0.53740 0.03600
H 	H 	0.24907 0.88434 0.52485 0.05700
H 	H 	0.15778 0.78558 0.59925 0.06000
N 	N 	0.48642 0.13765 0.33858 -0.13800
H 	H 	0.56675 0.13726 0.30492 0.09000
C 	C 	0.37752 0.12087 0.28258 -0.08400
H 	H 	0.33090 0.22124 0.27634 0.05800
H 	H 	0.31396 0.04363 0.30927 0.04300
H 	H 	0.40237 0.08645 0.21487 0.04400
N 	N 	0.46412 0.86813 0.65851 -0.13800
H 	H 	0.53359 0.83431 0.70003 0.08800
C 	C 	0.35870 0.92254 0.70257 -0.08400
H 	H 	0.29625 0.83656 0.71722 0.05100
H 	H 	0.30899 0.99908 0.66117 0.04800
H 	H 	0.38602 0.97231 0.76675 0.04400
N 	N 	0.58722 0.14290 0.64972 -0.14000
H 	H 	0.64512 0.21725 0.62736 0.08900
C 	C 	0.64747 0.06865 0.72136 -0.07200
H 	H 	0.71382 0.13743 0.75712 0.04000
H 	H 	0.69901 0.97992 0.69584 0.03100
H 	H 	0.58154 0.03741 0.77134 0.05000
N 	N 	0.53503 0.85926 0.34114 -0.13400
H 	H 	0.48124 0.88350 0.28656 0.07900
C 	C 	0.66309 0.85210 0.32236 -0.09100
H 	H 	0.67489 0.80055 0.25695 0.05200
H 	H 	0.71092 0.79027 0.37332 0.06900
H 	H 	0.70440 0.95635 0.32079 0.04200
