data_crystal

_cell_length_a 20.11834
_cell_length_b 7.26011
_cell_length_c 13.66031
_cell_angle_alpha 89.96095
_cell_angle_beta  103.06560
_cell_angle_gamma 90.11467

_symmetry_space_group_name_	'P 1'
_symmetry_space_group_name_H-M	'P 1'

loop_
_symmetry_equiv_pos_as_xyz
  x,y,z

loop_
_atom_site_label
_atom_site_type_symbol
_atom_site_fract_x
_atom_site_fract_y
_atom_site_fract_z
_atom_site_charge
O 	O 	0.44956 0.50681 0.59970 -0.43800
O 	O 	0.55044 0.00681 0.40030 -0.44000
O 	O 	0.58796 0.18006 0.59576 -0.47200
O 	O 	0.41204 0.68006 0.40424 -0.47100
C 	C 	0.61535 0.34507 0.61642 0.38100
C 	C 	0.38445 0.84412 0.38421 0.38200
O 	O 	0.45238 0.17743 0.61170 -0.44100
O 	O 	0.54762 0.67743 0.38830 -0.44100
O 	O 	0.41390 0.00189 0.41635 -0.45700
O 	O 	0.58610 0.50189 0.58365 -0.45700
C 	C 	0.43644 0.34565 0.63754 0.31800
C 	C 	0.56446 0.84551 0.36338 0.31800
O 	O 	0.48753 0.33749 0.43589 -0.58600
O 	O 	0.51247 0.83749 0.56411 -0.58600
V 	V 	0.50231 0.06466 0.51189 1.79300
V 	V 	0.49769 0.56466 0.48811 1.79300
C 	C 	0.60641 0.84625 0.10927 0.33800
C 	C 	0.39437 0.34697 0.89157 0.33800
H 	H 	0.51421 0.85051 0.16331 0.12400
H 	H 	0.48667 0.33158 0.83807 0.12400
H 	H 	0.68864 0.85702 0.98141 0.12500
H 	H 	0.31139 0.33050 0.01788 0.12700
C 	C 	0.60354 0.85111 0.28510 0.00600
C 	C 	0.39794 0.35438 0.71618 0.00700
C 	C 	0.92980 0.84215 0.31182 0.01500
C 	C 	0.07137 0.39421 0.68804 0.01400
C 	C 	0.89534 0.79207 0.38470 -0.05600
C 	C 	0.10683 0.44331 0.61598 -0.05500
C 	C 	0.82475 0.76177 0.35955 0.08200
C 	C 	0.17787 0.46296 0.64111 0.08300
C 	C 	0.78630 0.81207 0.26202 -0.00200
C 	C 	0.21538 0.40611 0.73827 -0.00200
C 	C 	0.82256 0.84310 0.18508 -0.03800
C 	C 	0.17833 0.37134 0.81433 -0.03900
C 	C 	0.71352 0.82827 0.23743 0.05000
C 	C 	0.28802 0.38465 0.76323 0.05100
C 	C 	0.67820 0.83958 0.13508 -0.04700
C 	C 	0.32274 0.36227 0.86535 -0.04700
C 	C 	0.71486 0.84839 0.05985 -0.09200
C 	C 	0.28559 0.34857 0.93977 -0.09400
C 	C 	0.78567 0.85575 0.08395 0.31700
C 	C 	0.21478 0.34646 0.91503 0.31700
C 	C 	0.67498 0.84571 0.31148 -0.03500
C 	C 	0.32697 0.37128 0.68949 -0.03600
C 	C 	0.56948 0.84846 0.18410 -0.11900
C 	C 	0.43163 0.34463 0.81713 -0.11900
C 	C 	0.89482 0.85667 0.21175 -0.04200
C 	C 	0.10582 0.36752 0.78771 -0.03900
H 	H 	0.69986 0.85980 0.38981 0.08500
H 	H 	0.30311 0.36592 0.61058 0.09000
H 	H 	0.98495 0.85386 0.33223 0.04600
H 	H 	0.01607 0.39256 0.66759 0.04700
H 	H 	0.92501 0.76054 0.45932 0.07300
H 	H 	0.07797 0.48162 0.54191 0.07300
C 	C 	0.20492 0.00316 0.25418 -0.03800
C 	C 	0.79284 0.51186 0.75387 -0.04100
H 	H 	0.17084 0.11690 0.25814 0.08700
H 	H 	0.82551 0.63105 0.75522 0.09100
C 	C 	0.26900 0.99863 0.32162 0.12700
C 	C 	0.72835 0.51128 0.68762 0.12900
C 	C 	0.31437 0.85069 0.31804 -0.09800
C 	C 	0.68502 0.35481 0.68373 -0.10100
C 	C 	0.29202 0.70618 0.24965 0.03600
C 	C 	0.70889 0.20431 0.74694 0.03600
H 	H 	0.32512 0.59054 0.24511 0.06300
H 	H 	0.67671 0.08502 0.74817 0.06600
C 	C 	0.22706 0.70913 0.18540 -0.01900
C 	C 	0.77413 0.20518 0.81014 -0.02200
H 	H 	0.21182 0.59579 0.13367 0.09000
H 	H 	0.79069 0.08599 0.85662 0.10000
C 	C 	0.18301 0.85851 0.18624 -0.02400
C 	C 	0.81678 0.35926 0.81459 -0.02400
O 	O 	0.91392 0.20337 0.91626 -0.44700
O 	O 	0.08608 0.70337 0.08374 -0.45200
O 	O 	0.04762 0.53554 0.88829 -0.45000
O 	O 	0.95238 0.03554 0.11171 -0.44600
C 	C 	0.06447 0.36897 0.86332 0.36100
C 	C 	0.93581 0.86812 0.13661 0.36500
O 	O 	0.91204 0.53278 0.90422 -0.45300
O 	O 	0.08796 0.03278 0.09578 -0.44800
O 	O 	0.94955 0.70816 0.09972 -0.43700
O 	O 	0.05045 0.20816 0.90028 -0.42900
C 	C 	0.88555 0.36473 0.88321 0.32300
C 	C 	0.11442 0.86482 0.11699 0.32400
O 	O 	0.01248 0.37530 0.06406 -0.58800
O 	O 	0.98752 0.87530 0.93594 -0.59000
V 	V 	0.99769 0.64818 0.98811 1.79200
V 	V 	0.00231 0.14818 0.01189 1.79300
N 	N 	0.28485 0.13796 0.39768 -0.02100
O 	O 	0.26927 0.30905 0.37529 -0.09000
O 	O 	0.30316 0.08992 0.49167 -0.09000
N 	N 	0.70960 0.66814 0.62316 -0.01700
O 	O 	0.73106 0.83139 0.65460 -0.09700
O 	O 	0.68481 0.64451 0.52765 -0.08500
F 	F 	0.57190 0.85139 0.01157 -0.42300
F 	F 	0.42829 0.33019 0.98913 -0.42300
N 	N 	0.79644 0.64719 0.42560 -0.02000
O 	O 	0.75487 0.51452 0.38783 -0.08600
O 	O 	0.82472 0.64377 0.52124 -0.09300
N 	N 	0.20864 0.56776 0.57356 -0.02300
O 	O 	0.18513 0.55491 0.47689 -0.09000
O 	O 	0.25131 0.69978 0.60841 -0.08700
F 	F 	0.81729 0.87295 0.00663 -0.45000
F 	F 	0.18284 0.31887 0.99135 -0.44700
