data_crystal

_cell_length_a 8.32398
_cell_length_b 13.17238
_cell_length_c 18.90099
_cell_angle_alpha 100.71152
_cell_angle_beta  91.19796
_cell_angle_gamma 98.77204

_symmetry_space_group_name_	'P 1'
_symmetry_space_group_name_H-M	'P 1'

loop_
_symmetry_equiv_pos_as_xyz
  x,y,z

loop_
_atom_site_label
_atom_site_type_symbol
_atom_site_fract_x
_atom_site_fract_y
_atom_site_fract_z
_atom_site_charge
P 	P 	0.04104 0.39477 0.33633 0.38600
O 	O 	0.87309 0.42589 0.32514 -0.32700
O 	O 	0.12242 0.43437 0.41438 -0.47100
O 	O 	0.65950 0.62710 0.36881 -0.31700
O 	O 	0.77456 0.53144 0.24716 -0.18100
O 	O 	0.98601 0.25875 0.32357 -0.20900
O 	O 	0.70906 0.71198 0.24324 -0.19000
H 	H 	0.47976 0.74889 0.27529 0.03800
C 	C 	0.68155 0.85976 0.33350 -0.19800
H 	H 	0.71917 0.81767 0.37491 0.10400
H 	H 	0.78911 0.90974 0.31896 0.10800
P 	P 	0.67288 0.75403 0.55610 0.34100
P 	P 	0.12222 0.81848 0.40666 0.35600
O 	O 	0.84820 0.76819 0.53453 -0.33100
O 	O 	0.08116 0.68595 0.40481 -0.28300
O 	O 	0.00980 0.86915 0.46147 -0.18900
O 	O 	0.67740 0.80017 0.64966 -0.23600
O 	O 	0.04017 0.84029 0.32533 -0.18900
C 	C 	0.15198 0.83471 0.27059 0.15400
H 	H 	0.27800 0.85790 0.29332 0.03500
C 	C 	0.11851 0.90971 0.22026 -0.06000
H 	H 	0.14471 0.99159 0.25037 0.10300
C 	C 	0.22909 0.78116 0.61971 0.11900
H 	H 	0.35513 0.77044 0.60744 0.02300
H 	H 	0.14337 0.74344 0.57334 0.00300
C 	C 	0.21827 0.89717 0.63277 -0.20900
H 	H 	0.25337 0.93293 0.68969 0.10400
H 	H 	0.29851 0.93711 0.59686 0.08800
H 	H 	0.09198 0.90850 0.62151 0.10600
Ba	Ba	0.85278 0.54834 0.46507 1.86900
C 	C 	0.95460 0.22815 0.38961 0.12100
H 	H 	0.85617 0.26644 0.41582 -0.03100
H 	H 	0.06476 0.24807 0.42630 0.01300
C 	C 	0.90509 0.11028 0.37503 -0.22600
H 	H 	0.77984 0.08840 0.35120 0.11200
H 	H 	0.91341 0.07880 0.42505 0.10500
H 	H 	0.98580 0.07348 0.33586 0.13200
C 	C 	0.77873 0.75507 0.69050 0.22200
H 	H 	0.86718 0.71379 0.65818 -0.01500
C 	C 	0.86733 0.84354 0.74906 -0.00500
H 	H 	0.94588 0.90143 0.72412 0.05900
H 	H 	0.77654 0.88477 0.77994 0.10000
P 	P 	0.14867 0.60532 0.66368 0.34700
O 	O 	0.31661 0.57414 0.67490 -0.31500
O 	O 	0.06729 0.56572 0.58563 -0.48000
O 	O 	0.53021 0.37299 0.63120 -0.35000
O 	O 	0.19021 0.74241 0.68242 -0.20000
P 	P 	0.05896 0.17924 0.59807 0.32200
O 	O 	0.61134 0.36629 0.46363 -0.46700
O 	O 	0.10855 0.31414 0.59520 -0.34400
O 	O 	0.18243 0.12419 0.55149 -0.18000
O 	O 	0.11019 0.16204 0.68488 -0.21100
Ba	Ba	0.33706 0.45175 0.53494 2.00100
P 	P 	0.64232 0.59662 0.27379 0.31700
C 	C 	0.60541 0.78446 0.26629 0.09400
H 	H 	0.59341 0.82832 0.22236 0.06000
H 	H 	0.59521 0.91042 0.35677 0.09500
O 	O 	0.57837 0.63380 0.53638 -0.45100
C 	C 	0.52067 0.21446 0.30458 0.15700
H 	H 	0.60713 0.28880 0.31769 0.01900
C 	C 	0.56644 0.14757 0.23356 -0.07200
H 	H 	0.54097 0.18461 0.18724 0.10200
H 	H 	0.69704 0.14147 0.23869 0.10700
P 	P 	0.52676 0.23000 0.44902 0.30500
O 	O 	0.34151 0.23185 0.46551 -0.26400
O 	O 	0.53110 0.15926 0.36013 -0.19000
H 	H 	0.20105 0.90278 0.17522 0.10600
C 	C 	0.06804 0.24551 0.73508 0.13600
H 	H 	0.14325 0.32063 0.72960 0.02700
H 	H 	0.93732 0.25142 0.72808 0.00800
C 	C 	0.09988 0.22738 0.81093 -0.22300
H 	H 	0.23102 0.22617 0.82066 0.13000
H 	H 	0.06185 0.29085 0.85116 0.11000
H 	H 	0.03168 0.15107 0.81795 0.13700
P 	P 	0.55164 0.38790 0.72286 0.33100
C 	C 	0.54529 0.18831 0.68973 0.02500
H 	H 	0.67447 0.21545 0.68020 0.04500
O 	O 	0.42149 0.45458 0.75199 -0.18100
O 	O 	0.47835 0.26275 0.73838 -0.17600
H 	H 	0.47232 0.17108 0.63786 0.04800
C 	C 	0.53502 0.08746 0.71901 0.04800
H 	H 	0.54238 0.02089 0.67429 0.04900
H 	H 	0.41882 0.07340 0.74587 0.06900
C 	C 	0.99851 0.45728 0.04742 -0.01400
C 	C 	0.89809 0.40671 0.09327 0.02800
C 	C 	0.73245 0.37409 0.07308 -0.02000
C 	C 	0.67017 0.38727 0.00844 -0.03200
C 	C 	0.77239 0.42534 0.95802 0.02900
C 	C 	0.93598 0.46485 0.97830 -0.02900
C 	C 	0.71215 0.41797 0.88729 0.03600
C 	C 	0.81361 0.45750 0.83489 0.04400
C 	C 	0.97653 0.50759 0.85764 -0.07400
C 	C 	0.03665 0.50919 0.92950 0.07400
C 	C 	0.76176 0.44796 0.76108 -0.04300
C 	C 	0.87025 0.48841 0.71289 0.00200
C 	C 	0.02591 0.54520 0.73485 -0.04100
C 	C 	0.08098 0.55427 0.80895 0.10700
C 	C 	0.16188 0.49509 0.06923 0.04700
C 	C 	0.22283 0.48662 0.13909 -0.02300
C 	C 	0.11857 0.43708 0.18653 0.06300
C 	C 	0.96388 0.38782 0.15774 0.03700
H 	H 	0.64534 0.33830 0.10580 0.07200
H 	H 	0.54044 0.36295 0.99792 0.07600
H 	H 	0.82869 0.48019 0.65719 -0.00400
C 	C 	0.23769 0.60707 0.83631 -0.07400
C 	C 	0.29822 0.60383 0.90633 0.07700
C 	C 	0.19853 0.55298 0.95268 -0.01700
C 	C 	0.26156 0.54500 0.02218 0.00000
C 	C 	0.46002 0.64688 0.92992 -0.03800
C 	C 	0.52281 0.63707 0.99756 -0.02500
C 	C 	0.42458 0.58608 0.04422 0.04800
C 	C 	0.38612 0.52974 0.16151 0.07000
C 	C 	0.48648 0.57641 0.11252 -0.07800
C 	C 	0.44107 0.52765 0.23292 -0.06500
C 	C 	0.33554 0.48188 0.27941 0.03000
C 	C 	0.17230 0.44004 0.26040 -0.02500
H 	H 	0.31650 0.64856 0.80288 0.11100
H 	H 	0.53974 0.68582 0.89521 0.08600
H 	H 	0.64881 0.66944 0.01335 0.06500
H 	H 	0.61364 0.60548 0.12656 0.08200
H 	H 	0.38148 0.48268 0.33343 0.01800
C 	C 	0.74984 0.18042 0.53957 -0.00900
C 	C 	0.43130 0.80907 0.46858 0.09200
C 	C 	0.39002 0.98056 0.45093 0.13500
C 	C 	0.33520 0.87404 0.44305 -0.09500
C 	C 	0.57633 0.84962 0.51062 -0.07200
C 	C 	0.63363 0.96188 0.52191 -0.00800
C 	C 	0.53995 0.02882 0.49112 0.00100
C 	C 	0.60210 0.13976 0.50160 -0.03900
C 	C 	0.84646 0.11679 0.56497 -0.06400
C 	C 	0.78624 0.00872 0.55884 0.01600
H 	H 	0.86184 0.96158 0.58078 0.04200
H 	H 	0.79732 0.26280 0.54431 0.00000
Cl	Cl	0.65051 0.66718 0.73338 -0.32800
Cl	Cl	0.98849 0.79839 0.81194 -0.28100
N 	N 	0.35811 0.23828 0.29800 -0.01800
O 	O 	0.26226 0.20237 0.24058 -0.07300
O 	O 	0.31343 0.30338 0.35052 -0.14600
N 	N 	0.47810 0.04212 0.21683 0.02500
O 	O 	0.45879 0.99566 0.14946 -0.10600
O 	O 	0.47536 0.98531 0.26569 -0.12100
Cl	Cl	0.69748 0.09403 0.78297 -0.30100
N 	N 	0.13808 0.72883 0.22897 -0.02000
O 	O 	0.06084 0.65015 0.25316 -0.07100
O 	O 	0.21655 0.71198 0.17030 -0.09900
N 	N 	0.55282 0.35906 0.86989 -0.01300
O 	O 	0.42837 0.40735 0.88170 -0.10800
O 	O 	0.53262 0.25985 0.87251 -0.08100
N 	N 	0.87882 0.30798 0.18867 -0.01000
O 	O 	0.91290 0.21366 0.17126 -0.08600
O 	O 	0.74020 0.32332 0.21416 -0.10800
Cl	Cl	0.26289 0.03868 0.40047 -0.27800
N 	N 	0.38671 0.69939 0.44455 -0.01600
O 	O 	0.37112 0.66617 0.37555 -0.12600
O 	O 	0.30367 0.64405 0.48545 -0.26900
N 	N 	0.95180 0.88715 0.18934 0.00000
O 	O 	0.90451 0.80176 0.14214 -0.08600
O 	O 	0.86319 0.96134 0.19662 -0.10400
