data_crystal

_cell_length_a 12.85967
_cell_length_b 8.92097
_cell_length_c 8.10198
_cell_angle_alpha 89.98487
_cell_angle_beta  97.43182
_cell_angle_gamma 90.05695

_symmetry_space_group_name_	'P 1'
_symmetry_space_group_name_H-M	'P 1'

loop_
_symmetry_equiv_pos_as_xyz
  x,y,z

loop_
_atom_site_label
_atom_site_type_symbol
_atom_site_fract_x
_atom_site_fract_y
_atom_site_fract_z
_atom_site_charge
C 	C 	0.49957 0.21798 0.49991 0.39900
C 	C 	0.87112 0.40221 0.68415 0.06300
C 	C 	0.13515 0.44297 0.56645 0.00300
C 	C 	0.86485 0.55705 0.43358 0.00300
C 	C 	0.02872 0.45817 0.56416 0.01500
C 	C 	0.97128 0.54186 0.43588 0.01400
C 	C 	0.49982 0.06521 0.49994 -0.06900
C 	C 	0.50018 0.93479 0.50006 -0.06900
C 	C 	0.82006 0.31805 0.80942 0.00300
C 	C 	0.75073 0.19979 0.75998 -0.03100
C 	C 	0.70296 0.12019 0.87856 -0.02000
C 	C 	0.50043 0.78202 0.50009 0.39800
C 	C 	0.72479 0.15709 0.04712 -0.03000
C 	C 	0.79500 0.27294 0.09749 -0.02300
C 	C 	0.84278 0.35312 0.97931 -0.03400
C 	C 	0.17996 0.68194 0.19061 0.00300
C 	C 	0.15736 0.64672 0.02076 -0.03400
C 	C 	0.20520 0.72686 0.90259 -0.02300
C 	C 	0.27535 0.84279 0.95296 -0.03000
C 	C 	0.29705 0.87984 0.12148 -0.02000
C 	C 	0.24921 0.80029 0.24003 -0.03100
C 	C 	0.29767 0.50406 0.46707 0.39500
C 	C 	0.70233 0.49594 0.53293 0.39500
C 	C 	0.81444 0.48602 0.55415 -0.12800
C 	C 	0.18556 0.51397 0.44585 -0.12800
C 	C 	0.02079 0.60928 0.31139 -0.07900
C 	C 	0.97922 0.39075 0.68865 -0.07900
C 	C 	0.12888 0.59779 0.31587 0.06200
H 	H 	0.82049 0.62216 0.33531 0.04300
H 	H 	0.10330 0.55693 0.98027 0.04100
H 	H 	0.18782 0.69954 0.77193 0.04600
H 	H 	0.31245 0.90438 0.86130 0.04700
H 	H 	0.35080 0.97036 0.16023 0.05000
H 	H 	0.26609 0.83064 0.37017 0.04700
H 	H 	0.17952 0.37785 0.66472 0.04300
H 	H 	0.97584 0.67432 0.21384 0.05100
H 	H 	0.02417 0.32572 0.78621 0.05100
H 	H 	0.73375 0.16955 0.62980 0.04700
H 	H 	0.64915 0.02974 0.83980 0.05000
H 	H 	0.68774 0.09546 0.13881 0.04700
H 	H 	0.81249 0.30016 0.22819 0.04500
H 	H 	0.89690 0.44284 0.01980 0.04100
N 	N 	0.50002 0.50000 0.07364 -0.18100
N 	N 	0.49998 0.50000 0.92636 -0.18100
O 	O 	0.49999 0.28534 0.63685 -0.46600
O 	O 	0.50001 0.71466 0.36315 -0.46600
O 	O 	0.50001 0.28534 0.36315 -0.46700
O 	O 	0.49999 0.71466 0.63685 -0.46700
O 	O 	0.34635 0.50000 0.61425 -0.45500
O 	O 	0.65365 0.50000 0.38575 -0.45500
O 	O 	0.34636 0.50000 0.34050 -0.45100
O 	O 	0.65364 0.50000 0.65950 -0.45100
Zn	Zn	0.49999 0.50000 0.68278 1.23300
Zn	Zn	0.50001 0.50000 0.31722 1.23300
