data_crystal

_cell_length_a 10.93083
_cell_length_b 10.92471
_cell_length_c 18.86833
_cell_angle_alpha 90.05285
_cell_angle_beta  89.75725
_cell_angle_gamma 60.30671

_symmetry_space_group_name_	'P 1'
_symmetry_space_group_name_H-M	'P 1'

loop_
_symmetry_equiv_pos_as_xyz
  x,y,z

loop_
_atom_site_label
_atom_site_type_symbol
_atom_site_fract_x
_atom_site_fract_y
_atom_site_fract_z
_atom_site_charge
C 	C 	0.23433 0.64792 0.60938 0.49000
C 	C 	0.66062 0.55326 0.80158 0.42800
C 	C 	0.69676 0.67350 0.81243 -0.25600
C 	C 	0.66921 0.64701 0.67634 -0.16900
C 	C 	0.81599 0.63380 0.68985 0.35600
C 	C 	0.66125 0.52794 0.72050 0.02600
C 	C 	0.78533 0.15691 0.71033 0.29500
C 	C 	0.80047 0.14158 0.78402 0.30800
C 	C 	0.68378 0.16816 0.82665 -0.19900
C 	C 	0.55174 0.21939 0.79510 0.30000
C 	C 	0.54108 0.21713 0.72278 0.30100
C 	C 	0.65329 0.62148 0.60109 0.45200
C 	C 	0.65574 0.19101 0.67894 -0.21300
C 	C 	0.18430 0.55976 0.72125 0.33100
C 	C 	0.17996 0.56178 0.79507 0.27000
C 	C 	0.17101 0.67691 0.83238 -0.10600
C 	C 	0.17547 0.78516 0.79524 -0.06500
C 	C 	0.17615 0.78670 0.72162 0.23700
C 	C 	0.18673 0.66942 0.68378 -0.22800
C 	C 	0.70554 0.51892 0.26794 0.15400
C 	C 	0.70354 0.53803 0.19468 0.28000
C 	C 	0.64834 0.67345 0.16698 -0.10800
C 	C 	0.62618 0.23139 0.60420 0.50200
C 	C 	0.58029 0.79157 0.21175 -0.09500
C 	C 	0.57682 0.77423 0.28459 0.38300
C 	C 	0.64368 0.63833 0.31334 -0.25400
C 	C 	0.51820 0.26271 0.27804 -0.10000
C 	C 	0.53038 0.23924 0.20557 0.30000
C 	C 	0.66253 0.14469 0.17819 -0.30400
C 	C 	0.78095 0.07361 0.22300 0.51200
C 	C 	0.76794 0.09306 0.29527 0.01800
C 	C 	0.63569 0.18960 0.32249 -0.03500
C 	C 	0.26099 0.70426 0.28065 -0.23800
C 	C 	0.22620 0.64763 0.40009 0.35800
C 	C 	0.23989 0.70711 0.20889 0.52200
C 	C 	0.14638 0.66618 0.18281 -0.40900
C 	C 	0.08257 0.61160 0.22848 0.57600
C 	C 	0.10666 0.60629 0.30065 -0.24800
C 	C 	0.19117 0.65807 0.32662 0.08400
C 	C 	0.70103 0.10533 0.89703 0.48300
C 	C 	0.72314 0.68803 0.88826 0.48700
C 	C 	0.11730 0.70713 0.90516 0.43700
C 	C 	0.67744 0.10267 0.10504 0.53400
C 	C 	0.69391 0.69003 0.09685 0.45800
C 	C 	0.63804 0.61689 0.38955 0.48800
C 	C 	0.09276 0.70841 0.11249 0.58900
C 	C 	0.61545 0.23096 0.39509 0.41500
C 	C 	0.57374 0.81666 0.78139 0.27000
C 	C 	0.55007 0.79452 0.70209 0.05700
C 	C 	0.83692 0.63290 0.77073 0.22200
Cr	Cr	0.39293 0.39790 0.50223 1.55100
Cr	Cr	0.39824 0.70860 0.50126 1.53900
Cr	Cr	0.70880 0.39347 0.49646 1.54600
Cr	Cr	0.93762 0.93854 0.00764 1.46400
Cr	Cr	0.62515 0.93745 0.99452 1.51800
Cr	Cr	0.93799 0.62508 0.00119 1.51500
H 	H 	0.75899 0.42719 0.70849 0.14300
H 	H 	0.16978 0.87422 0.82339 0.10400
H 	H 	0.53818 0.89727 0.19103 0.08200
H 	H 	0.41708 0.34043 0.29975 0.09100
H 	H 	0.33275 0.73766 0.30035 0.14200
H 	H 	0.44758 0.79679 0.69734 0.04400
H 	H 	0.05702 0.56581 0.33617 0.16700
H 	H 	0.87675 0.70577 0.78482 0.00500
O 	O 	0.50743 0.25557 0.58142 -0.40300
O 	O 	0.52446 0.69592 0.42406 -0.51200
O 	O 	0.73653 0.50426 0.41481 -0.47100
O 	O 	0.69146 0.27716 0.42218 -0.49300
O 	O 	0.49999 0.49999 0.49998 -0.74800
O 	O 	0.08949 0.82561 0.93061 -0.42800
O 	O 	0.81837 0.05454 0.92988 -0.40600
O 	O 	0.60587 0.07731 0.91553 -0.34000
O 	O 	0.64644 0.80670 0.91757 -0.51700
O 	O 	0.83720 0.59329 0.91525 -0.40200
O 	O 	0.06533 0.63537 0.93159 -0.40500
O 	O 	0.28019 0.52739 0.57891 -0.45800
O 	O 	0.06830 0.82879 0.09186 -0.42100
O 	O 	0.79873 0.05748 0.07937 -0.43000
O 	O 	0.58468 0.08048 0.07679 -0.40700
O 	O 	0.62679 0.80964 0.06705 -0.54500
O 	O 	0.81601 0.59646 0.07650 -0.42400
O 	O 	0.04568 0.63831 0.08107 -0.46400
O 	O 	0.83359 0.83369 0.00112 -0.83000
O 	O 	0.26031 0.73974 0.58458 -0.46600
O 	O 	0.53225 0.69515 0.57383 -0.51600
O 	O 	0.74493 0.50343 0.57638 -0.42900
O 	O 	0.69925 0.27639 0.57195 -0.48200
O 	O 	0.49902 0.25640 0.41985 -0.43200
O 	O 	0.27240 0.52816 0.42914 -0.48700
O 	O 	0.25191 0.74057 0.42302 -0.45100
O 	O 	0.60589 0.92617 0.78945 -0.30900
H 	H 	0.68502 0.90921 0.75773 0.14400
F 	F 	0.94042 0.49899 0.79034 -0.32300
F 	F 	0.92287 0.50829 0.66154 -0.38100
F 	F 	0.89663 0.13710 0.66991 -0.37300
F 	F 	0.92852 0.09841 0.81319 -0.36800
F 	F 	0.43478 0.25357 0.83434 -0.32600
F 	F 	0.41722 0.23833 0.69634 -0.32400
F 	F 	0.18261 0.45232 0.68631 -0.29700
F 	F 	0.17873 0.45402 0.83000 -0.28700
O 	O 	0.44820 0.85605 0.81930 -0.28600
H 	H 	0.37685 0.95130 0.80276 0.17400
O 	O 	0.16844 0.90113 0.68611 -0.26500
H 	H 	0.16618 0.97083 0.72058 0.18800
O 	O 	0.76738 0.38496 0.29633 -0.26000
H 	H 	0.81848 0.31405 0.25884 0.20800
F 	F 	0.76195 0.42450 0.15044 -0.41300
F 	F 	0.51465 0.88983 0.32710 -0.48500
O 	O 	0.41643 0.30746 0.16085 -0.27200
H 	H 	0.33045 0.36411 0.18967 0.18600
F 	F 	0.90962 0.97895 0.19756 -0.57600
O 	O 	0.88593 0.01602 0.33656 -0.16000
H 	H 	0.85769 0.02099 0.38683 0.16500
F 	F 	0.30519 0.75600 0.16526 -0.46600
F 	F 	0.99065 0.57194 0.20420 -0.53000
O 	O 	0.54359 0.90256 0.65884 -0.26200
H 	H 	0.44986 0.98681 0.66714 0.16100
O 	O 	0.82564 0.74611 0.65922 -0.32400
H 	H 	0.83494 0.72987 0.60724 0.17600
F 	F 	0.76192 0.42907 0.83296 -0.39000
O 	O 	0.52892 0.58903 0.83164 -0.30400
H 	H 	0.54103 0.58127 0.88384 0.21300
O 	O 	0.54962 0.50655 0.69982 -0.23400
H 	H 	0.46035 0.59401 0.70934 0.16000
