data_crystal

_cell_length_a 7.78716
_cell_length_b 8.53058
_cell_length_c 27.59253
_cell_angle_alpha 90.09260
_cell_angle_beta  86.80317
_cell_angle_gamma 94.15969

_symmetry_space_group_name_	'P 1'
_symmetry_space_group_name_H-M	'P 1'

loop_
_symmetry_equiv_pos_as_xyz
  x,y,z

loop_
_atom_site_label
_atom_site_type_symbol
_atom_site_fract_x
_atom_site_fract_y
_atom_site_fract_z
_atom_site_charge
C 	C 	0.54606 0.79466 0.49870 0.38600
C 	C 	0.45394 0.20534 0.50130 0.38100
C 	C 	0.56159 0.44729 0.89676 0.07400
C 	C 	0.48666 0.51013 0.10054 0.07600
C 	C 	0.65189 0.57066 0.86872 -0.11300
C 	C 	0.41315 0.38260 0.12887 -0.11400
C 	C 	0.73420 0.70195 0.89244 0.06700
C 	C 	0.31877 0.25728 0.10673 0.06800
C 	C 	0.48001 0.31502 0.87353 -0.11100
C 	C 	0.54048 0.65386 0.12329 -0.10900
C 	C 	0.51201 0.48255 0.64616 -0.10600
C 	C 	0.48645 0.51105 0.35394 -0.10600
C 	C 	0.59125 0.61444 0.02143 0.02100
C 	C 	0.45948 0.33648 0.97605 0.02100
C 	C 	0.43541 0.35456 0.02717 0.02000
C 	C 	0.62369 0.59225 0.97098 0.02100
C 	C 	0.50522 0.49278 0.04962 -0.04500
C 	C 	0.54849 0.45841 0.94800 -0.04500
C 	C 	0.63277 0.75980 0.04369 -0.08800
C 	C 	0.40356 0.19697 0.95248 -0.09000
C 	C 	0.61142 0.78311 0.09392 0.06600
C 	C 	0.41173 0.18285 0.90180 0.06500
C 	C 	0.50343 0.49700 0.59379 0.35400
C 	C 	0.49630 0.50159 0.40627 0.35500
C 	C 	0.73080 0.70107 0.94300 -0.09000
C 	C 	0.33153 0.24484 0.05628 -0.09000
C 	C 	0.56995 0.95873 0.49799 -0.11800
C 	C 	0.43006 0.04127 0.50202 -0.10800
C 	C 	0.65486 0.55698 0.81784 0.19900
C 	C 	0.43402 0.38717 0.17864 0.19600
C 	C 	0.46823 0.32264 0.82277 0.19800
C 	C 	0.51568 0.66130 0.17458 0.19300
C 	C 	0.64864 0.38027 0.71451 -0.08800
C 	C 	0.61028 0.59718 0.27587 -0.08800
C 	C 	0.63961 0.39616 0.66483 0.04100
C 	C 	0.62105 0.58732 0.32575 0.03700
C 	C 	0.39335 0.55351 0.67753 0.01700
C 	C 	0.33749 0.45080 0.33244 0.01500
C 	C 	0.40394 0.54241 0.72806 -0.03100
C 	C 	0.32090 0.46582 0.28244 -0.02200
C 	C 	0.53254 0.45277 0.74600 0.11200
C 	C 	0.46393 0.53319 0.25337 0.10400
H 	H 	0.29634 0.61941 0.66202 0.03900
H 	H 	0.23453 0.39123 0.35492 0.03700
H 	H 	0.01293 0.38383 0.46358 0.06800
H 	H 	0.98707 0.61623 0.53640 0.08200
H 	H 	0.73496 0.63831 0.34230 0.03200
H 	H 	0.73141 0.33957 0.64098 0.03600
H 	H 	0.71923 0.65091 0.25434 0.06600
H 	H 	0.74788 0.31367 0.72878 0.06700
H 	H 	0.67569 0.85895 0.02132 0.04700
H 	H 	0.35553 0.09618 0.97352 0.04700
H 	H 	0.81321 0.78755 0.96051 0.04900
H 	H 	0.25024 0.15268 0.04063 0.04500
H 	H 	0.70168 0.01091 0.49418 0.09400
H 	H 	0.29832 0.98909 0.50583 0.08700
N 	N 	0.55308 0.44289 0.79692 -0.18200
N 	N 	0.46874 0.52771 0.20108 -0.17800
N 	N 	0.95032 0.45796 0.48688 -0.22000
N 	N 	0.04968 0.54204 0.51312 -0.23700
O 	O 	0.38925 0.73857 0.50322 -0.46400
O 	O 	0.61075 0.26143 0.49678 -0.46100
O 	O 	0.67839 0.71163 0.49481 -0.46000
O 	O 	0.32161 0.28837 0.50519 -0.46000
O 	O 	0.35544 0.51344 0.57545 -0.43800
O 	O 	0.64456 0.48656 0.42455 -0.43800
O 	O 	0.64459 0.48650 0.56704 -0.43700
O 	O 	0.35541 0.51350 0.43296 -0.43900
O 	O 	0.75691 0.65558 0.78879 -0.21300
O 	O 	0.42321 0.25207 0.20437 -0.20600
O 	O 	0.53844 0.79885 0.19819 -0.21000
O 	O 	0.36937 0.21496 0.79904 -0.21200
Zn	Zn	0.30694 0.51799 0.50562 1.23000
Zn	Zn	0.69306 0.48201 0.49438 1.23000
C 	C 	0.28447 0.62502 0.76372 -0.03300
C 	C 	0.16045 0.73097 0.74098 -0.15500
H 	H 	0.23292 0.82246 0.71781 0.06900
H 	H 	0.06691 0.66023 0.71936 0.07200
H 	H 	0.08730 0.79171 0.77008 0.06900
H 	H 	0.20750 0.53504 0.78647 0.04500
H 	H 	0.36419 0.69978 0.78817 0.04200
C 	C 	0.15377 0.40374 0.26125 -0.04600
C 	C 	0.99564 0.46793 0.28668 -0.13300
H 	H 	0.97750 0.42830 0.32500 0.06600
H 	H 	0.00604 0.59840 0.28514 0.05500
H 	H 	0.88093 0.42154 0.26770 0.06300
H 	H 	0.14980 0.43714 0.22259 0.04400
H 	H 	0.14177 0.27342 0.26405 0.04900
C 	C 	0.81642 0.84692 0.86489 -0.08200
C 	C 	0.84725 0.99761 0.89462 -0.13800
H 	H 	0.72847 0.02416 0.91624 0.05700
H 	H 	0.95410 0.98784 0.91904 0.05300
H 	H 	0.88392 0.09803 0.86966 0.06100
H 	H 	0.94107 0.81775 0.84693 0.05700
H 	H 	0.72794 0.87960 0.83702 0.06100
C 	C 	0.17313 0.15935 0.13385 -0.07300
C 	C 	0.20713 0.98634 0.13851 -0.14200
H 	H 	0.26504 0.94046 0.10413 0.05700
H 	H 	0.29214 0.97069 0.16871 0.08000
H 	H 	0.08390 0.91625 0.14754 0.05500
H 	H 	0.14017 0.20712 0.17026 0.05300
H 	H 	0.05535 0.16762 0.11371 0.03700
C 	C 	0.67035 0.94277 0.11549 -0.08600
C 	C 	0.73764 0.07332 0.07974 -0.13200
H 	H 	0.63899 0.09619 0.05368 0.05700
H 	H 	0.85805 0.04164 0.05979 0.05200
H 	H 	0.76497 0.18416 0.09996 0.05900
H 	H 	0.56111 0.99106 0.13616 0.06800
H 	H 	0.77342 0.92522 0.14075 0.06000
C 	C 	0.35290 0.02651 0.87822 -0.08200
C 	C 	0.32903 0.88149 0.91132 -0.13600
H 	H 	0.44543 0.86976 0.93195 0.05600
H 	H 	0.21522 0.88823 0.93705 0.04700
H 	H 	0.30768 0.77427 0.88891 0.05500
H 	H 	0.22871 0.03928 0.86125 0.05600
H 	H 	0.45158 0.99878 0.84947 0.05700
