data_crystal

_cell_length_a 12.82660
_cell_length_b 12.82668
_cell_length_c 26.74865
_cell_angle_alpha 90.52939
_cell_angle_beta  89.47702
_cell_angle_gamma 119.79929

_symmetry_space_group_name_	'P 1'
_symmetry_space_group_name_H-M	'P 1'

loop_
_symmetry_equiv_pos_as_xyz
  x,y,z

loop_
_atom_site_label
_atom_site_type_symbol
_atom_site_fract_x
_atom_site_fract_y
_atom_site_fract_z
_atom_site_charge
O 	O 	0.46087 0.12093 0.80524 -0.47100
O 	O 	0.66006 0.53913 0.69476 -0.46500
O 	O 	0.87907 0.33994 0.80524 -0.47200
O 	O 	0.46087 0.12093 0.69476 -0.46700
O 	O 	0.66006 0.53913 0.80524 -0.47600
O 	O 	0.87907 0.33994 0.69476 -0.46500
O 	O 	0.12093 0.46087 0.30524 -0.46900
O 	O 	0.53913 0.66006 0.19476 -0.47700
O 	O 	0.33994 0.87907 0.30524 -0.46600
O 	O 	0.12093 0.46087 0.19476 -0.47500
O 	O 	0.53913 0.66006 0.30524 -0.46400
O 	O 	0.33994 0.87907 0.19476 -0.47400
O 	O 	0.49891 0.35047 0.80187 -0.51700
O 	O 	0.85156 0.50109 0.69813 -0.51300
O 	O 	0.64953 0.14844 0.80187 -0.51400
O 	O 	0.49891 0.35047 0.69813 -0.50500
O 	O 	0.85156 0.50109 0.80187 -0.51200
O 	O 	0.64953 0.14844 0.69813 -0.51000
O 	O 	0.35047 0.49891 0.30187 -0.50500
O 	O 	0.50109 0.85156 0.19813 -0.51100
O 	O 	0.14844 0.64953 0.30187 -0.51100
O 	O 	0.35047 0.49891 0.19813 -0.51600
O 	O 	0.50109 0.85156 0.30187 -0.51300
O 	O 	0.14844 0.64953 0.19813 -0.51300
C 	C 	0.55703 0.45718 0.82155 0.38900
C 	C 	0.89864 0.44042 0.67771 0.38500
C 	C 	0.54303 0.10054 0.82164 0.38700
C 	C 	0.55768 0.45786 0.67860 0.38200
C 	C 	0.89968 0.44300 0.82158 0.38600
C 	C 	0.54290 0.09812 0.67921 0.38700
C 	C 	0.45785 0.55776 0.32144 0.38200
C 	C 	0.44292 0.90031 0.17855 0.38600
C 	C 	0.09816 0.54294 0.32080 0.38900
C 	C 	0.45793 0.55708 0.17863 0.38800
C 	C 	0.44044 0.89863 0.32230 0.38400
C 	C 	0.09992 0.54229 0.17850 0.38800
C 	C 	0.99389 0.49550 0.97405 0.00800
C 	C 	0.49794 0.99972 0.52867 -0.00700
C 	C 	0.50488 0.49828 0.97430 0.00300
C 	C 	0.99465 0.49058 0.52381 0.00200
C 	C 	0.50190 0.00692 0.97432 0.00500
C 	C 	0.51012 0.50692 0.52638 -0.00100
C 	C 	0.49047 0.99425 0.47623 0.00300
C 	C 	0.00249 0.49856 0.02643 0.00000
C 	C 	0.50660 0.51056 0.47378 -0.00100
C 	C 	0.49696 0.99839 0.02670 0.00100
C 	C 	0.00013 0.49814 0.47138 -0.00800
C 	C 	0.50232 0.50284 0.02671 0.00100
C 	C 	0.96240 0.66709 0.97764 -0.02800
C 	C 	0.70148 0.03243 0.52336 -0.04100
C 	C 	0.33369 0.29582 0.97659 -0.02700
C 	C 	0.01444 0.68951 0.52805 -0.03400
C 	C 	0.70465 0.03786 0.97597 -0.02700
C 	C 	0.32762 0.31268 0.52502 -0.04000
C 	C 	0.68887 0.01276 0.47210 -0.02600
C 	C 	0.98493 0.67853 0.02864 -0.02500
C 	C 	0.31228 0.32811 0.47507 -0.04100
C 	C 	0.69417 0.01539 0.02698 -0.02800
C 	C 	0.03395 0.70207 0.47678 -0.03800
C 	C 	0.32306 0.30571 0.02783 -0.03200
C 	C 	0.94468 0.56619 0.89886 0.00500
C 	C 	0.61901 0.04493 0.60333 -0.00700
C 	C 	0.43332 0.38002 0.89823 0.00600
C 	C 	0.96952 0.57124 0.60284 -0.00100
C 	C 	0.62079 0.05559 0.89818 0.00500
C 	C 	0.43229 0.39022 0.60249 -0.01200
C 	C 	0.57102 0.96882 0.39723 0.00000
C 	C 	0.03236 0.60892 0.10429 0.00700
C 	C 	0.39012 0.43267 0.39761 -0.01200
C 	C 	0.57777 0.96793 0.10362 0.00400
C 	C 	0.04566 0.61934 0.39676 -0.00400
C 	C 	0.39234 0.42167 0.10425 0.00300
C 	C 	0.03672 0.51696 0.13005 -0.10600
C 	C 	0.47153 0.95827 0.37231 -0.09000
C 	C 	0.48390 0.51777 0.13036 -0.10000
C 	C 	0.03059 0.52139 0.36791 -0.10000
C 	C 	0.48188 0.96424 0.13027 -0.10200
C 	C 	0.48426 0.52153 0.37009 -0.08400
C 	C 	0.52120 0.03037 0.63213 -0.09300
C 	C 	0.96052 0.48311 0.87037 -0.09500
C 	C 	0.52118 0.48429 0.63004 -0.08400
C 	C 	0.52203 0.04040 0.87058 -0.09700
C 	C 	0.95838 0.47146 0.62770 -0.08900
C 	C 	0.51672 0.47857 0.87045 -0.09900
H 	H 	0.05134 0.69118 0.12355 0.04600
H 	H 	0.63679 0.95458 0.37714 0.05200
H 	H 	0.31004 0.35874 0.12326 0.04800
H 	H 	0.08007 0.70675 0.37989 0.06100
H 	H 	0.64074 0.94828 0.12218 0.04700
H 	H 	0.30554 0.37303 0.37959 0.05800
H 	H 	0.70633 0.07898 0.62024 0.06200
H 	H 	0.91021 0.61922 0.88174 0.04700
H 	H 	0.37272 0.30556 0.62047 0.05900
H 	H 	0.70791 0.08937 0.88037 0.04800
H 	H 	0.95560 0.63719 0.62296 0.05300
H 	H 	0.37994 0.29306 0.88044 0.04700
H 	H 	0.98302 0.75016 0.04914 0.07600
H 	H 	0.76219 0.01676 0.45058 0.06600
H 	H 	0.25213 0.23192 0.04796 0.07500
H 	H 	0.05535 0.78582 0.45929 0.06800
H 	H 	0.76781 0.01719 0.04671 0.07600
H 	H 	0.23130 0.26319 0.45674 0.06100
H 	H 	0.78509 0.05349 0.54088 0.07100
H 	H 	0.94222 0.72909 0.95951 0.06800
H 	H 	0.26276 0.23162 0.54331 0.06100
H 	H 	0.78652 0.05788 0.95705 0.06800
H 	H 	0.01920 0.76311 0.54961 0.06700
H 	H 	0.27174 0.21432 0.95785 0.06700
C 	C 	0.96928 0.57821 0.94989 0.01600
C 	C 	0.60564 0.02240 0.55205 0.02300
C 	C 	0.42192 0.39183 0.94944 0.01600
C 	C 	0.99379 0.58437 0.55179 0.02200
C 	C 	0.60874 0.03117 0.94920 0.01700
C 	C 	0.42236 0.40353 0.55156 0.01900
C 	C 	0.58405 0.99286 0.44830 0.01500
C 	C 	0.00504 0.59512 0.05339 0.01200
C 	C 	0.40324 0.42283 0.44857 0.01900
C 	C 	0.59101 0.99546 0.05271 0.01500
C 	C 	0.02327 0.60603 0.44804 0.01900
C 	C 	0.40624 0.40863 0.05319 0.01800
Cr	Cr	0.48763 0.24118 0.75000 1.54400
Cr	Cr	0.75355 0.51237 0.75000 1.54400
Cr	Cr	0.75882 0.24645 0.75000 1.54500
Cr	Cr	0.24118 0.48763 0.25000 1.54400
Cr	Cr	0.51237 0.75355 0.25000 1.54400
Cr	Cr	0.24645 0.75882 0.25000 1.54500
O 	O 	0.66667 0.33333 0.75000 -0.72600
O 	O 	0.33333 0.66667 0.25000 -0.72600
C 	C 	0.01457 0.42251 0.89274 0.01400
C 	C 	0.40679 0.97525 0.61042 0.01900
C 	C 	0.57758 0.59261 0.89366 0.01800
C 	C 	0.98617 0.39001 0.60162 0.01300
C 	C 	0.40784 0.98694 0.89382 0.01600
C 	C 	0.59206 0.59811 0.60700 0.01300
C 	C 	0.39030 0.98638 0.39837 0.00900
C 	C 	0.99862 0.40596 0.10524 0.02600
C 	C 	0.59803 0.59260 0.39320 0.01200
C 	C 	0.40945 0.00329 0.10638 0.02000
C 	C 	0.97519 0.40696 0.38959 0.02800
C 	C 	0.59486 0.59027 0.10586 0.01700
C 	C 	0.00931 0.41074 0.94577 0.00700
C 	C 	0.39949 0.98448 0.55799 0.02200
C 	C 	0.58940 0.59852 0.94668 0.01000
C 	C 	0.99472 0.39305 0.54811 0.01300
C 	C 	0.40159 0.99177 0.94700 0.00900
C 	C 	0.59855 0.60580 0.55366 0.00600
C 	C 	0.39326 0.99484 0.45188 0.00700
C 	C 	0.00615 0.40518 0.05209 0.00400
C 	C 	0.60563 0.59894 0.44656 0.00600
C 	C 	0.40043 0.99518 0.05335 0.00800
C 	C 	0.98442 0.39957 0.44201 0.01900
C 	C 	0.59557 0.59924 0.05288 0.01000
C 	C 	0.01645 0.31531 0.02437 -0.00900
C 	C 	0.30548 0.00530 0.48213 -0.01900
C 	C 	0.68478 0.69966 0.02586 -0.01000
C 	C 	0.99281 0.30484 0.46492 -0.00300
C 	C 	0.29984 0.98436 0.02675 -0.01000
C 	C 	0.70320 0.69199 0.47391 -0.01800
C 	C 	0.30502 0.99328 0.53503 -0.01700
C 	C 	0.01619 0.31691 0.97091 -0.01200
C 	C 	0.69195 0.70318 0.52640 -0.01800
C 	C 	0.30093 0.98445 0.97327 -0.01200
C 	C 	0.00479 0.30508 0.51781 -0.03100
C 	C 	0.68312 0.69853 0.97241 -0.01300
C 	C 	0.92584 0.29311 0.13414 0.10100
H 	H 	0.93202 0.29171 0.17444 0.02800
O 	O 	0.84966 0.20182 0.11362 -0.18600
C 	C 	0.30563 0.00724 0.36846 0.11500
H 	H 	0.34034 0.08536 0.34447 0.01900
O 	O 	0.19834 0.93401 0.36812 -0.19300
C 	C 	0.70756 0.63033 0.13479 0.10300
H 	H 	0.70817 0.63660 0.17520 0.02900
O 	O 	0.79963 0.64687 0.11409 -0.18600
C 	C 	0.89639 0.30078 0.35795 0.11500
H 	H 	0.90204 0.30679 0.31750 0.02600
O 	O 	0.81876 0.20763 0.37668 -0.19000
C 	C 	0.36970 0.07660 0.13603 0.10300
H 	H 	0.36393 0.07157 0.17643 0.02700
O 	O 	0.35276 0.15185 0.11592 -0.18700
C 	C 	0.70510 0.65450 0.36040 0.10800
H 	H 	0.75137 0.75145 0.35646 0.02300
O 	O 	0.73902 0.59607 0.33591 -0.18400
C 	C 	0.30055 0.89658 0.64204 0.11800
H 	H 	0.30661 0.90204 0.68249 0.02400
O 	O 	0.20726 0.81926 0.62329 -0.19200
C 	C 	0.09570 0.39652 0.86129 0.10100
H 	H 	0.08475 0.38631 0.82112 0.02600
O 	O 	0.18215 0.39556 0.87955 -0.18100
C 	C 	0.65328 0.70517 0.63985 0.10800
H 	H 	0.75009 0.75113 0.64432 0.02300
O 	O 	0.59438 0.73952 0.66374 -0.18500
C 	C 	0.30104 0.90596 0.86301 0.10100
H 	H 	0.30118 0.91746 0.82293 0.02600
O 	O 	0.21459 0.81903 0.88161 -0.18200
C 	C 	0.00669 0.30508 0.63149 0.10500
H 	H 	0.08477 0.33956 0.65551 0.02000
O 	O 	0.93325 0.19786 0.63178 -0.18700
C 	C 	0.60381 0.69980 0.86316 0.10000
H 	H 	0.61429 0.69924 0.82294 0.03000
O 	O 	0.60466 0.78706 0.88226 -0.18000
C 	C 	0.03954 0.22901 0.05207 0.10900
H 	H 	0.09762 0.25986 0.08451 0.02200
O 	O 	0.98876 0.12248 0.04149 -0.14200
C 	C 	0.22742 0.04769 0.46011 0.10900
H 	H 	0.26606 0.12038 0.43360 0.02000
O 	O 	0.12051 0.00136 0.46976 -0.17100
C 	C 	0.76988 0.80867 0.05440 0.11500
H 	H 	0.73791 0.83557 0.08701 0.02000
O 	O 	0.87660 0.86460 0.04426 -0.14800
C 	C 	0.01078 0.21814 0.43341 0.10500
H 	H 	0.96901 0.12437 0.44321 0.05200
O 	O 	0.07465 0.25152 0.39616 -0.18800
C 	C 	0.19079 0.96027 0.05573 0.11300
H 	H 	0.16428 0.90112 0.08779 0.02000
O 	O 	0.13472 0.01150 0.04674 -0.14800
C 	C 	0.81676 0.77852 0.44869 0.11500
H 	H 	0.86779 0.74574 0.42808 0.02500
O 	O 	0.85327 0.88621 0.45003 -0.17300
C 	C 	0.21839 0.01156 0.56646 0.11900
H 	H 	0.12495 0.97095 0.55635 0.04500
O 	O 	0.25150 0.07459 0.60393 -0.19000
C 	C 	0.00800 0.21491 0.94063 0.11700
H 	H 	0.95349 0.18641 0.90710 0.02300
O 	O 	0.06428 0.16473 0.95097 -0.15900
C 	C 	0.77918 0.81618 0.55179 0.11500
H 	H 	0.74713 0.86788 0.57236 0.02400
O 	O 	0.88663 0.85147 0.55064 -0.17300
C 	C 	0.20606 0.99162 0.94417 0.11900
H 	H 	0.23036 0.04426 0.91016 0.02100
O 	O 	0.10048 0.93690 0.95615 -0.15900
C 	C 	0.04668 0.22651 0.53977 0.11300
H 	H 	0.11899 0.26460 0.56647 0.01900
O 	O 	0.00055 0.11979 0.52974 -0.17400
C 	C 	0.78504 0.79226 0.94266 0.12000
H 	H 	0.81354 0.76667 0.90863 0.02000
O 	O 	0.83554 0.89816 0.95415 -0.15800
