data_crystal

_cell_length_a 10.74556
_cell_length_b 10.82034
_cell_length_c 9.60343
_cell_angle_alpha 90.15655
_cell_angle_beta  89.79619
_cell_angle_gamma 91.58850

_symmetry_space_group_name_	'P 1'
_symmetry_space_group_name_H-M	'P 1'

loop_
_symmetry_equiv_pos_as_xyz
  x,y,z

loop_
_atom_site_label
_atom_site_type_symbol
_atom_site_fract_x
_atom_site_fract_y
_atom_site_fract_z
_atom_site_charge
O 	O 	0.49999 0.31964 0.61881 -0.37500
O 	O 	0.50000 0.31966 0.38124 -0.36200
C 	C 	0.49518 0.26237 0.49957 0.34300
O 	O 	0.31768 0.49997 0.61879 -0.38000
O 	O 	0.31770 0.49999 0.38121 -0.37200
C 	C 	0.26027 0.50277 0.50035 0.30100
Cu	Cu	0.49999 0.49999 0.64066 0.91800
Cu	Cu	0.50001 0.50001 0.35934 0.91900
O 	O 	0.50000 0.68034 0.61876 -0.38000
O 	O 	0.50001 0.68036 0.38119 -0.37900
O 	O 	0.68230 0.50001 0.61879 -0.37000
O 	O 	0.68232 0.50003 0.38121 -0.36500
C 	C 	0.49336 0.73671 0.50022 0.30300
C 	C 	0.74018 0.50303 0.50006 0.28400
C 	C 	0.06851 0.37453 0.45601 0.05400
H 	H 	0.09413 0.30763 0.53863 0.03400
C 	C 	0.92486 0.37847 0.44931 -0.10000
H 	H 	0.89295 0.36321 0.34045 0.07900
H 	H 	0.88420 0.30295 0.51510 0.07500
H 	H 	0.10545 0.46426 0.72569 0.06300
H 	H 	0.89519 0.45648 0.72251 0.06600
C 	C 	0.07237 0.53281 0.64917 -0.04700
C 	C 	0.07551 0.60657 0.40224 -0.04400
C 	C 	0.12239 0.50395 0.50067 -0.06500
H 	H 	0.11291 0.69849 0.43713 0.04200
H 	H 	0.10964 0.59276 0.29407 0.05000
C 	C 	0.87857 0.50488 0.50067 -0.01800
C 	C 	0.92956 0.52988 0.64976 -0.06600
C 	C 	0.93184 0.60725 0.40270 -0.06900
H 	H 	0.89780 0.59193 0.29458 0.05400
H 	H 	0.89972 0.69935 0.43733 0.04500
H 	H 	0.10752 0.62553 0.68407 0.04500
H 	H 	0.89631 0.61996 0.68925 0.05000
C 	C 	0.30820 0.12446 0.66464 -0.10600
H 	H 	0.30090 0.22359 0.65980 0.08500
C 	C 	0.22164 0.05873 0.74809 0.11300
C 	C 	0.22300 0.92957 0.74847 -0.08200
H 	H 	0.15612 0.87626 0.80983 0.06600
C 	C 	0.30860 0.86700 0.66756 -0.01100
H 	H 	0.30116 0.76729 0.66753 0.04800
C 	C 	0.39796 0.93197 0.58570 -0.00600
C 	C 	0.39864 0.06274 0.58443 0.09500
C 	C 	0.48580 0.12761 0.49749 -0.13300
C 	C 	0.56072 0.06207 0.40279 0.13100
H 	H 	0.62090 0.88544 0.33761 0.06900
C 	C 	0.55872 0.93456 0.40606 -0.06000
C 	C 	0.48303 0.86976 0.49968 -0.05400
H 	H 	0.36052 0.36100 0.12912 0.04200
C 	C 	0.66424 0.66312 0.14365 -0.06200
H 	H 	0.67263 0.67057 0.25317 0.06100
C 	C 	0.74418 0.74314 0.07160 -0.02300
H 	H 	0.80695 0.80526 0.12781 0.04300
C 	C 	0.74384 0.74359 0.92824 -0.00100
H 	H 	0.80640 0.80603 0.87209 0.04000
C 	C 	0.66361 0.66394 0.85614 -0.07400
H 	H 	0.67152 0.67206 0.74657 0.06700
C 	C 	0.58043 0.58049 0.92518 0.07200
C 	C 	0.58058 0.58025 0.07468 0.05400
N 	N 	0.50120 0.50121 0.14791 -0.17800
C 	C 	0.42337 0.42366 0.07396 0.01500
H 	H 	0.36082 0.36103 0.87104 0.04300
C 	C 	0.42348 0.42367 0.92611 0.02700
N 	N 	0.50125 0.50129 0.85204 -0.18300
N 	N 	0.64202 0.12289 0.30416 -0.02200
O 	O 	0.65207 0.07924 0.17832 -0.10300
O 	O 	0.72133 0.20749 0.34589 -0.11000
N 	N 	0.13134 0.12277 0.83046 -0.02500
O 	O 	0.13153 0.24298 0.83395 -0.12300
O 	O 	0.04913 0.06139 0.90468 -0.11000
N 	N 	0.12034 0.33397 0.32341 -0.13300
H 	H 	0.09455 0.38436 0.23772 0.09000
C 	C 	0.11823 0.20187 0.29917 -0.09700
H 	H 	0.16705 0.18188 0.19981 0.07100
H 	H 	0.02062 0.16575 0.29212 0.06800
H 	H 	0.16717 0.15403 0.38444 0.06300
