data_crystal

_cell_length_a 18.94331
_cell_length_b 10.91027
_cell_length_c 18.89537
_cell_angle_alpha 90.03464
_cell_angle_beta  89.89263
_cell_angle_gamma 90.00485

_symmetry_space_group_name_	'P 1'
_symmetry_space_group_name_H-M	'P 1'

loop_
_symmetry_equiv_pos_as_xyz
  x,y,z

loop_
_atom_site_label
_atom_site_type_symbol
_atom_site_fract_x
_atom_site_fract_y
_atom_site_fract_z
_atom_site_charge
C 	C 	0.73007 0.37679 0.14571 0.42300
C 	C 	0.99347 0.00128 0.03651 0.21000
C 	C 	0.99817 0.77744 0.03756 0.05800
C 	C 	0.50163 0.05405 0.03610 -0.01300
C 	C 	0.49920 0.05414 0.96359 -0.01400
C 	C 	0.00162 0.55405 0.03610 0.01100
C 	C 	0.99920 0.55414 0.96359 0.01000
C 	C 	0.50575 0.50144 0.96394 0.23700
C 	C 	0.49347 0.50128 0.03651 0.23600
C 	C 	0.69753 0.86606 0.03794 -0.01800
C 	C 	0.30251 0.86616 0.96199 -0.01800
C 	C 	0.19753 0.36606 0.03794 0.00600
C 	C 	0.80251 0.36617 0.96199 0.00500
C 	C 	0.70001 0.85299 0.96467 0.03500
C 	C 	0.30002 0.85310 0.03526 0.03500
C 	C 	0.20001 0.35299 0.96467 0.00600
C 	C 	0.26990 0.37687 0.85426 0.42200
C 	C 	0.80002 0.35310 0.03526 0.00600
C 	C 	0.75196 0.91527 0.92556 -0.14800
C 	C 	0.24791 0.91506 0.07437 -0.14800
C 	C 	0.25196 0.41527 0.92556 -0.11200
C 	C 	0.74791 0.41506 0.07437 -0.11300
C 	C 	0.79867 0.99492 0.95964 0.10300
C 	C 	0.20100 0.99427 0.04026 0.10400
C 	C 	0.29867 0.49493 0.95964 0.00900
C 	C 	0.70100 0.49427 0.04026 0.00900
C 	C 	0.79808 0.00387 0.03197 -0.08700
C 	C 	0.23007 0.87679 0.14571 0.43900
C 	C 	0.20161 0.00317 0.96794 -0.08900
C 	C 	0.29808 0.50387 0.03197 0.00400
C 	C 	0.70161 0.50317 0.96794 0.00300
C 	C 	0.74775 0.93975 0.07198 -0.05900
C 	C 	0.25216 0.93950 0.92794 -0.05700
C 	C 	0.24775 0.43975 0.07198 -0.11100
C 	C 	0.75216 0.43950 0.92794 -0.11000
C 	C 	0.53614 0.06079 0.47255 -0.01500
C 	C 	0.52688 0.06473 0.54475 -0.01600
C 	C 	0.03614 0.56080 0.47255 0.00500
C 	C 	0.76990 0.87687 0.85426 0.43900
C 	C 	0.02688 0.56474 0.54475 0.01500
C 	C 	0.49763 0.16884 0.57604 -0.10100
C 	C 	0.51811 0.16216 0.43037 -0.11100
C 	C 	0.99762 0.66884 0.57604 -0.11100
C 	C 	0.01811 0.66216 0.43036 -0.10900
C 	C 	0.53131 0.15554 0.14664 0.42100
C 	C 	0.46874 0.15560 0.85333 0.42100
C 	C 	0.03131 0.65554 0.14664 0.42200
C 	C 	0.96874 0.65560 0.85333 0.42500
C 	C 	0.48300 0.27323 0.53480 0.02000
C 	C 	0.50998 0.39091 0.92711 -0.13900
C 	C 	0.49364 0.27002 0.46194 0.00700
C 	C 	0.98299 0.77322 0.53480 0.02700
C 	C 	0.99362 0.77002 0.46193 0.00400
C 	C 	0.78937 0.02676 0.47435 0.39300
C 	C 	0.18323 0.92197 0.54387 0.42400
C 	C 	0.28935 0.52678 0.47436 0.40900
C 	C 	0.68323 0.42198 0.54387 0.41500
C 	C 	0.79009 0.01234 0.54660 -0.19200
C 	C 	0.17734 0.91092 0.47151 -0.16500
C 	C 	0.29008 0.51235 0.54661 -0.16300
C 	C 	0.48955 0.39060 0.07315 -0.13900
C 	C 	0.67734 0.41093 0.47150 -0.16400
C 	C 	0.74993 0.92007 0.57792 0.00300
C 	C 	0.23788 0.89737 0.42906 -0.01800
C 	C 	0.24993 0.42006 0.57792 -0.02900
C 	C 	0.73788 0.39737 0.42906 -0.02400
C 	C 	0.70337 0.84940 0.53685 -0.07200
C 	C 	0.30445 0.88903 0.46006 -0.04400
C 	C 	0.20338 0.34938 0.53684 -0.06700
C 	C 	0.80445 0.38901 0.46006 -0.04300
C 	C 	0.70108 0.86568 0.46399 0.09300
C 	C 	0.00998 0.89091 0.92711 -0.11400
C 	C 	0.31068 0.90165 0.53289 0.10300
C 	C 	0.20109 0.36567 0.46399 0.08900
C 	C 	0.81068 0.40163 0.53289 0.09600
C 	C 	0.74568 0.95173 0.43208 -0.24600
C 	C 	0.25019 0.92232 0.57476 -0.27300
C 	C 	0.24568 0.45173 0.43208 -0.26400
C 	C 	0.75018 0.42232 0.57476 -0.26700
C 	C 	0.74068 0.97258 0.14610 0.43400
C 	C 	0.25930 0.97255 0.85387 0.43400
C 	C 	0.24068 0.47258 0.14610 0.42200
C 	C 	0.98955 0.89060 0.07315 -0.10800
C 	C 	0.75930 0.47255 0.85387 0.42200
C 	C 	0.72762 0.37405 0.35440 0.39600
C 	C 	0.26971 0.37926 0.64803 0.39400
C 	C 	0.22762 0.87406 0.35440 0.39600
C 	C 	0.76972 0.87926 0.64803 0.38700
C 	C 	0.53565 0.15648 0.35564 0.42300
C 	C 	0.46802 0.15771 0.64660 0.42500
C 	C 	0.03565 0.65648 0.35563 0.42600
C 	C 	0.96802 0.65770 0.64660 0.43000
C 	C 	0.73973 0.97857 0.35708 0.51400
C 	C 	0.00575 0.00144 0.96394 0.21800
C 	C 	0.25872 0.97042 0.64573 0.53100
C 	C 	0.23973 0.47857 0.35708 0.48900
C 	C 	0.75872 0.47042 0.64573 0.49900
C 	C 	0.49679 0.16422 0.92565 -0.12500
C 	C 	0.50346 0.16403 0.07425 -0.12600
C 	C 	0.99679 0.66422 0.92565 -0.13300
C 	C 	0.00346 0.66403 0.07425 -0.12300
C 	C 	0.50171 0.27757 0.96252 0.06800
C 	C 	0.49817 0.27744 0.03756 0.06700
C 	C 	0.00171 0.77757 0.96252 0.07600
Cr	Cr	0.77200 0.16964 0.25011 1.54200
Cr	Cr	0.38333 0.01062 0.74916 1.53300
Cr	Cr	0.11667 0.51062 0.25084 1.54000
Cr	Cr	0.88333 0.51062 0.74916 1.54100
Cr	Cr	0.22800 0.16964 0.74989 1.54100
Cr	Cr	0.27200 0.66964 0.25011 1.54300
Cr	Cr	0.72800 0.66964 0.74989 1.54200
Cr	Cr	0.61496 0.32335 0.24926 1.54000
Cr	Cr	0.38504 0.32335 0.75074 1.54100
Cr	Cr	0.11496 0.82335 0.24926 1.54100
Cr	Cr	0.88504 0.82335 0.75074 1.54200
Cr	Cr	0.61667 0.01062 0.25084 1.53200
F 	F 	0.83170 0.11489 0.44649 -0.47000
F 	F 	0.12376 0.93719 0.58320 -0.46000
F 	F 	0.33168 0.61493 0.44650 -0.46700
F 	F 	0.62376 0.43721 0.58320 -0.46700
F 	F 	0.01255 0.10913 0.92876 -0.43300
F 	F 	0.98639 0.10881 0.07189 -0.43400
F 	F 	0.51255 0.60913 0.92876 -0.43100
F 	F 	0.48639 0.60881 0.07189 -0.43200
H 	H 	0.82574 0.06854 0.57756 0.11100
H 	H 	0.36310 0.90221 0.55572 0.02900
H 	H 	0.16564 0.30991 0.43260 0.01400
H 	H 	0.86309 0.40218 0.55573 0.02400
H 	H 	0.52167 0.39544 0.87118 0.09400
H 	H 	0.47786 0.39486 0.12909 0.09100
H 	H 	0.02167 0.89544 0.87118 0.09600
H 	H 	0.97786 0.89486 0.12909 0.09000
H 	H 	0.65685 0.81900 0.06775 0.05700
H 	H 	0.34335 0.81943 0.93220 0.05800
H 	H 	0.15685 0.31900 0.06775 0.04800
H 	H 	0.12489 0.91163 0.44881 0.11400
H 	H 	0.84335 0.31943 0.93220 0.04800
H 	H 	0.66337 0.79104 0.93914 0.04900
H 	H 	0.33680 0.79151 0.06080 0.04900
H 	H 	0.16337 0.29104 0.93914 0.05300
H 	H 	0.83680 0.29151 0.06080 0.05300
H 	H 	0.83891 0.04515 0.93091 0.01800
H 	H 	0.16062 0.04424 0.06897 0.01700
H 	H 	0.33891 0.54515 0.93091 0.05700
H 	H 	0.66062 0.54424 0.06897 0.05600
H 	H 	0.83637 0.06442 0.05613 0.08300
H 	H 	0.32572 0.56857 0.57756 0.11100
H 	H 	0.16318 0.06340 0.94377 0.08400
H 	H 	0.33637 0.56442 0.05613 0.06500
H 	H 	0.66318 0.56339 0.94377 0.06500
H 	H 	0.55806 0.97785 0.44994 0.06500
H 	H 	0.53909 0.98373 0.57558 0.06400
H 	H 	0.05806 0.47786 0.44994 0.04300
H 	H 	0.03909 0.48375 0.57559 0.04100
H 	H 	0.50487 0.96573 0.06211 0.07800
H 	H 	0.49638 0.96587 0.93742 0.07800
H 	H 	0.00487 0.46573 0.06211 0.05700
H 	H 	0.62489 0.41166 0.44881 0.11100
H 	H 	0.99638 0.46587 0.93742 0.05600
H 	H 	0.45985 0.35461 0.55811 0.05800
H 	H 	0.48169 0.35017 0.43035 0.04600
H 	H 	0.95983 0.85460 0.55811 0.06100
H 	H 	0.98167 0.85016 0.43034 0.05100
H 	H 	0.67192 0.77702 0.56025 0.06900
H 	H 	0.35125 0.87481 0.42805 0.07600
H 	H 	0.17194 0.27699 0.56024 0.06300
H 	H 	0.85125 0.37478 0.42805 0.07100
H 	H 	0.66562 0.80994 0.43261 0.01800
O 	O 	0.78754 0.04269 0.17047 -0.49800
O 	O 	0.45413 0.05110 0.66916 -0.49400
O 	O 	0.04587 0.55110 0.33084 -0.48700
O 	O 	0.95413 0.55110 0.66916 -0.48600
O 	O 	0.68134 0.95930 0.32551 -0.53400
O 	O 	0.31866 0.95930 0.67449 -0.53900
O 	O 	0.18134 0.45930 0.32551 -0.54300
O 	O 	0.81866 0.45930 0.67449 -0.54500
O 	O 	0.66788 0.16787 0.25007 -0.75500
O 	O 	0.33212 0.16787 0.74993 -0.75400
O 	O 	0.16788 0.66787 0.25007 -0.75000
O 	O 	0.21246 0.04269 0.82953 -0.49500
O 	O 	0.83212 0.66787 0.74993 -0.75000
O 	O 	0.76566 0.29216 0.17505 -0.52300
O 	O 	0.23434 0.29216 0.82495 -0.52300
O 	O 	0.26566 0.79216 0.17505 -0.52300
O 	O 	0.73434 0.79216 0.82495 -0.52400
O 	O 	0.67019 0.40898 0.16855 -0.47800
O 	O 	0.32981 0.40898 0.83145 -0.47800
O 	O 	0.17019 0.90898 0.16855 -0.47500
O 	O 	0.82981 0.90898 0.83145 -0.47600
O 	O 	0.55658 0.25145 0.17516 -0.52400
O 	O 	0.28754 0.54269 0.17047 -0.47800
O 	O 	0.44342 0.25145 0.82484 -0.52200
O 	O 	0.05658 0.75145 0.17516 -0.52000
O 	O 	0.94342 0.75145 0.82484 -0.52100
O 	O 	0.54592 0.04951 0.17032 -0.48700
O 	O 	0.45408 0.04951 0.82968 -0.48700
O 	O 	0.04592 0.54951 0.17032 -0.47700
O 	O 	0.95408 0.54951 0.82968 -0.47800
O 	O 	0.68139 0.95784 0.17671 -0.51400
O 	O 	0.31861 0.95784 0.82329 -0.51300
O 	O 	0.18139 0.45784 0.17671 -0.52500
O 	O 	0.71246 0.54269 0.82953 -0.47500
O 	O 	0.81861 0.45784 0.82329 -0.52500
O 	O 	0.78750 0.04428 0.33099 -0.48300
O 	O 	0.21250 0.04428 0.66901 -0.49200
O 	O 	0.28750 0.54428 0.33099 -0.45900
O 	O 	0.71250 0.54428 0.66901 -0.46400
O 	O 	0.76561 0.29363 0.32386 -0.50200
O 	O 	0.23439 0.29363 0.67614 -0.51900
O 	O 	0.26561 0.79363 0.32386 -0.49800
O 	O 	0.73439 0.79363 0.67614 -0.51400
O 	O 	0.67014 0.41057 0.32908 -0.47800
O 	O 	0.55654 0.25292 0.32397 -0.52700
O 	O 	0.32986 0.41057 0.67092 -0.47200
O 	O 	0.17014 0.91057 0.32908 -0.47200
O 	O 	0.82986 0.91057 0.67092 -0.46300
O 	O 	0.44346 0.25292 0.67603 -0.52000
O 	O 	0.05654 0.75292 0.32397 -0.52400
O 	O 	0.94346 0.75292 0.67603 -0.51900
O 	O 	0.54587 0.05110 0.33084 -0.49700
