data_crystal

_cell_length_a 10.72961
_cell_length_b 10.72041
_cell_length_c 17.11132
_cell_angle_alpha 99.67280
_cell_angle_beta  100.15860
_cell_angle_gamma 60.44464

_symmetry_space_group_name_	'P 1'
_symmetry_space_group_name_H-M	'P 1'

loop_
_symmetry_equiv_pos_as_xyz
  x,y,z

loop_
_atom_site_label
_atom_site_type_symbol
_atom_site_fract_x
_atom_site_fract_y
_atom_site_fract_z
_atom_site_charge
C 	C 	0.35576 0.76989 0.39820 0.44800
C 	C 	0.81828 0.35005 0.32360 -0.04600
C 	C 	0.35493 0.81991 0.15895 -0.08700
C 	C 	0.39796 0.36818 0.35399 0.37000
C 	C 	0.44485 0.85728 0.21858 0.05500
C 	C 	0.43098 0.86057 0.29961 0.06900
C 	C 	0.28291 0.74183 0.25737 0.01000
C 	C 	0.28489 0.75167 0.17880 -0.00500
C 	C 	0.54719 0.89196 0.20053 -0.00900
C 	C 	0.62394 0.93921 0.26054 -0.00100
C 	C 	0.60396 0.95036 0.33969 0.01700
C 	C 	0.85485 0.20425 0.19685 0.14300
C 	C 	0.50491 0.91614 0.35928 -0.05300
C 	C 	0.34690 0.80399 0.31836 -0.15000
C 	C 	0.30083 0.27892 0.80003 -0.17900
C 	C 	0.77442 0.37815 0.40288 0.41200
C 	C 	0.42656 0.17621 0.76323 0.14200
C 	C 	0.47946 0.22294 0.71193 0.00700
C 	C 	0.25241 0.44877 0.70779 -0.03600
C 	C 	0.21402 0.41407 0.77103 0.01400
C 	C 	0.50497 0.02959 0.77883 -0.40000
C 	C 	0.64239 0.93964 0.75575 0.18300
C 	C 	0.86503 0.21369 0.28075 0.01900
C 	C 	0.70490 0.99430 0.71678 0.03700
C 	C 	0.62465 0.13445 0.69508 -0.13900
C 	C 	0.38340 0.35318 0.67671 -0.09000
C 	C 	0.77029 0.36845 0.71466 -0.00900
C 	C 	0.35846 0.76860 0.62768 0.42300
C 	C 	0.81483 0.32970 0.78067 -0.08400
C 	C 	0.33974 0.80849 0.70975 -0.07200
C 	C 	0.31325 0.83638 0.77760 -0.08100
C 	C 	0.89081 0.30891 0.08697 0.47800
C 	C 	0.29732 0.26817 0.12442 0.30500
C 	C 	0.77568 0.47223 0.28418 -0.14700
C 	C 	0.29844 0.88795 0.08453 0.40800
C 	C 	0.87988 0.30072 0.86028 0.41100
C 	C 	0.27918 0.25386 0.87694 0.35000
C 	C 	0.27908 0.88431 0.85727 0.40100
C 	C 	0.40850 0.37530 0.60013 0.32600
C 	C 	0.71916 0.41148 0.63553 0.30500
C 	C 	0.35424 0.34198 0.27324 -0.09200
C 	C 	0.32449 0.31166 0.20500 -0.05400
C 	C 	0.82841 0.32686 0.15997 -0.24300
C 	C 	0.78114 0.46090 0.20385 0.42000
C 	C 	0.87331 0.07223 0.15367 -0.17700
C 	C 	0.92357 0.94919 0.19262 0.10900
C 	C 	0.95046 0.95604 0.27531 0.07500
C 	C 	0.91997 0.08729 0.31936 -0.13200
Cr	Cr	0.60810 0.61086 0.52225 1.54600
Cr	Cr	0.28889 0.59999 0.48842 1.52900
Cr	Cr	0.60304 0.28919 0.48939 1.52700
Cr	Cr	0.05396 0.05225 0.96738 1.36900
Cr	Cr	0.05989 0.37316 0.99271 1.40800
Cr	Cr	0.37337 0.06169 0.99171 1.42200
F 	F 	0.74478 0.58125 0.16940 -0.44200
H 	H 	0.73419 0.57951 0.31511 0.11700
H 	H 	0.67744 0.17116 0.66430 0.06200
H 	H 	0.84468 0.06276 0.09005 0.10000
H 	H 	0.93961 0.84860 0.15865 0.07200
H 	H 	0.98889 0.86067 0.30560 0.07300
H 	H 	0.94072 0.08869 0.38362 0.06800
H 	H 	0.22936 0.68549 0.27015 0.01400
H 	H 	0.57661 0.87535 0.14109 0.09700
H 	H 	0.22307 0.71432 0.13361 0.04400
H 	H 	0.69808 0.96853 0.24517 0.07200
H 	H 	0.66521 0.98610 0.38611 0.04400
H 	H 	0.48784 0.93342 0.42142 0.06700
H 	H 	0.17952 0.55040 0.68317 0.01800
H 	H 	0.46183 0.98368 0.80972 0.21200
H 	H 	0.11679 0.49305 0.79730 -0.01600
H 	H 	0.70158 0.82890 0.77011 -0.00100
H 	H 	0.81408 0.92721 0.70146 0.07200
O 	O 	0.74981 0.49979 0.43804 -0.46300
O 	O 	0.41173 0.18102 0.09153 -0.38800
O 	O 	0.36501 0.94436 0.06332 -0.38600
O 	O 	0.47766 0.72626 0.43929 -0.53700
O 	O 	0.15938 0.90667 0.87621 -0.51500
O 	O 	0.93082 0.17742 0.88673 -0.50800
O 	O 	0.91036 0.39542 0.89572 -0.45400
O 	O 	0.18601 0.36173 0.91987 -0.58000
O 	O 	0.40000 0.17301 0.91463 -0.53400
O 	O 	0.35414 0.93694 0.89934 -0.52500
O 	O 	0.16241 0.16237 0.98393 -0.94700
O 	O 	0.29897 0.46880 0.55739 -0.51500
O 	O 	0.26015 0.74300 0.41227 -0.52500
O 	O 	0.29774 0.46655 0.39472 -0.52900
O 	O 	0.48808 0.25350 0.38643 -0.49500
O 	O 	0.72267 0.30380 0.42194 -0.53000
O 	O 	0.75113 0.50222 0.61352 -0.41300
O 	O 	0.47889 0.72851 0.60196 -0.52200
O 	O 	0.26147 0.74543 0.58775 -0.51000
O 	O 	0.48940 0.25593 0.56191 -0.47300
O 	O 	0.72389 0.30605 0.58461 -0.49200
O 	O 	0.50001 0.50001 0.50002 -0.76500
O 	O 	0.17110 0.91468 0.05310 -0.39300
O 	O 	0.94168 0.18484 0.05071 -0.39400
O 	O 	0.92208 0.40342 0.07261 -0.30600
O 	O 	0.19688 0.36915 0.08385 -0.42600
