data_crystal

_cell_length_a 19.07508
_cell_length_b 7.14381
_cell_length_c 17.89005
_cell_angle_alpha 89.99710
_cell_angle_beta  109.06152
_cell_angle_gamma 90.00597

_symmetry_space_group_name_	'P 1'
_symmetry_space_group_name_H-M	'P 1'

loop_
_symmetry_equiv_pos_as_xyz
  x,y,z

loop_
_atom_site_label
_atom_site_type_symbol
_atom_site_fract_x
_atom_site_fract_y
_atom_site_fract_z
_atom_site_charge
O 	O 	0.56231 0.50577 0.43967 -0.47900
O 	O 	0.43769 0.00577 0.56033 -0.49200
O 	O 	0.41165 0.16915 0.40533 -0.46700
O 	O 	0.58835 0.66915 0.59467 -0.46700
C 	C 	0.38418 0.34530 0.38360 0.27100
C 	C 	0.61581 0.84531 0.61641 0.28700
O 	O 	0.56014 0.17561 0.43001 -0.47900
O 	O 	0.43986 0.67561 0.56999 -0.47900
O 	O 	0.58724 0.01210 0.58520 -0.46900
O 	O 	0.41276 0.51210 0.41480 -0.45700
C 	C 	0.58200 0.34444 0.41605 0.36600
C 	C 	0.41798 0.84442 0.58393 0.38500
O 	O 	0.50872 0.34142 0.55089 -0.62300
O 	O 	0.49128 0.84142 0.44911 -0.61600
V 	V 	0.49838 0.06393 0.49056 1.79500
V 	V 	0.50162 0.56393 0.50944 1.79800
C 	C 	0.18598 0.78499 0.88003 0.18300
C 	C 	0.81411 0.28471 0.12008 0.18600
C 	C 	0.12661 0.91453 0.86083 -0.18200
C 	C 	0.87342 0.41446 0.13920 -0.19400
C 	C 	0.11508 0.03302 0.79370 0.18400
C 	C 	0.88492 0.53307 0.20628 0.19700
C 	C 	0.16430 0.02398 0.74918 -0.04200
C 	C 	0.83569 0.52402 0.25080 -0.03900
C 	C 	0.22095 0.88772 0.76694 0.02000
C 	C 	0.77908 0.38766 0.23309 0.02100
C 	C 	0.22935 0.76253 0.83009 -0.05600
C 	C 	0.77074 0.26229 0.17001 -0.06400
C 	C 	0.15613 0.14497 0.68489 -0.07800
C 	C 	0.84385 0.64510 0.31506 -0.07100
C 	C 	0.20508 0.13829 0.64085 0.14600
C 	C 	0.79488 0.63844 0.35909 0.13400
C 	C 	0.26247 0.00403 0.65924 -0.10600
C 	C 	0.73749 0.50414 0.34071 -0.06600
C 	C 	0.26944 0.87607 0.72145 0.05100
C 	C 	0.73057 0.37606 0.27855 0.02400
C 	C 	0.32415 0.73427 0.73767 -0.06700
C 	C 	0.67588 0.23415 0.26238 -0.05000
C 	C 	0.32867 0.60412 0.79789 -0.01500
C 	C 	0.67145 0.10380 0.20226 -0.04100
C 	C 	0.28241 0.61893 0.84378 -0.01900
C 	C 	0.71774 0.11855 0.15640 -0.00900
C 	C 	0.31235 0.99358 0.61607 0.08400
C 	C 	0.68760 0.49372 0.38386 0.04200
C 	C 	0.36742 0.85404 0.63209 -0.16200
C 	C 	0.63255 0.35409 0.36788 -0.14400
C 	C 	0.37292 0.72315 0.69306 0.17200
C 	C 	0.62710 0.22308 0.30696 0.15600
H 	H 	0.11134 0.24598 0.66785 0.07800
H 	H 	0.88863 0.74613 0.33209 0.07900
H 	H 	0.30752 0.09188 0.56850 0.02500
H 	H 	0.69240 0.59210 0.43139 0.04200
H 	H 	0.36865 0.49106 0.81059 0.04100
H 	H 	0.63152 0.99060 0.18963 0.05700
H 	H 	0.28852 0.51715 0.89036 0.04400
H 	H 	0.71168 0.01661 0.10989 0.03800
C 	C 	0.79853 0.69918 0.78411 -0.04100
C 	C 	0.20133 0.19926 0.21606 -0.03500
H 	H 	0.84604 0.63552 0.77031 0.05200
H 	H 	0.15376 0.13595 0.22987 0.04800
H 	H 	0.79270 0.61924 0.83472 0.04400
H 	H 	0.20715 0.11898 0.16553 0.04000
C 	C 	0.72658 0.67336 0.71288 -0.06900
C 	C 	0.27323 0.17346 0.28734 -0.07500
H 	H 	0.68847 0.57741 0.72998 0.04600
H 	H 	0.31126 0.07698 0.27038 0.04500
H 	H 	0.74015 0.60612 0.66319 0.04900
H 	H 	0.25958 0.10681 0.33711 0.04800
H 	H 	0.75709 0.92615 0.61203 0.05700
H 	H 	0.24305 0.42753 0.38802 0.06200
C 	C 	0.81784 0.02079 0.73446 0.09300
C 	C 	0.18224 0.52128 0.26546 0.13200
C 	C 	0.74625 0.98321 0.82831 -0.03300
C 	C 	0.25378 0.48276 0.17161 -0.04000
C 	C 	0.81436 0.90998 0.80826 -0.07300
C 	C 	0.18563 0.41001 0.19174 -0.08600
H 	H 	0.75372 0.13442 0.84256 0.03100
H 	H 	0.24644 0.63399 0.15735 0.04000
H 	H 	0.74195 0.90865 0.88126 0.04000
H 	H 	0.25798 0.40809 0.11865 0.03800
C 	C 	0.68832 0.86429 0.68591 -0.01600
C 	C 	0.31167 0.36430 0.31410 -0.00300
C 	C 	0.74487 0.99079 0.66287 -0.08800
C 	C 	0.25525 0.49148 0.33703 -0.12400
C 	C 	0.67330 0.95595 0.75796 -0.05800
C 	C 	0.32674 0.45523 0.24193 -0.07600
H 	H 	0.63498 0.86657 0.77750 0.04000
H 	H 	0.36490 0.36521 0.22241 0.04100
H 	H 	0.64574 0.09405 0.74080 0.04100
H 	H 	0.35452 0.59315 0.25895 0.05300
H 	H 	0.82210 0.17251 0.74952 0.02400
H 	H 	0.17800 0.67292 0.25027 0.02000
H 	H 	0.71982 0.13009 0.64247 0.05300
H 	H 	0.28040 0.63084 0.35718 0.06900
O 	O 	0.08722 0.27182 0.08523 -0.47600
O 	O 	0.91278 0.77182 0.91477 -0.47600
O 	O 	0.93986 0.59554 0.06999 -0.48200
O 	O 	0.06014 0.09554 0.93001 -0.49200
C 	C 	0.92083 0.42621 0.08716 0.38500
C 	C 	0.07918 0.92623 0.91285 0.39400
O 	O 	0.08834 0.60193 0.09468 -0.47900
O 	O 	0.91166 0.10193 0.90532 -0.49000
O 	O 	0.06231 0.76541 0.93966 -0.46500
O 	O 	0.93769 0.26541 0.06034 -0.46600
C 	C 	0.11489 0.43114 0.11940 0.34200
C 	C 	0.88511 0.93113 0.88060 0.35300
O 	O 	0.99127 0.42963 0.94913 -0.61900
O 	O 	0.00873 0.92963 0.05087 -0.61300
V 	V 	0.00162 0.70715 0.00944 1.79800
V 	V 	0.99838 0.20715 0.99056 1.79600
O 	O 	0.20333 0.68441 0.94990 -0.21500
C 	C 	0.26504 0.76926 0.00701 0.07600
H 	H 	0.30770 0.82413 0.98239 0.01500
H 	H 	0.29379 0.66069 0.05034 0.01300
C 	C 	0.23998 0.92591 0.05025 -0.17900
H 	H 	0.19169 0.87961 0.06715 0.07800
H 	H 	0.28574 0.96386 0.10436 0.06100
H 	H 	0.22447 0.05197 0.01212 0.06800
O 	O 	0.79681 0.18390 0.05028 -0.21900
C 	C 	0.73507 0.26845 0.99311 0.08100
H 	H 	0.69237 0.32328 0.01769 0.01200
H 	H 	0.70637 0.15971 0.94985 0.00800
C 	C 	0.76006 0.42507 0.94979 -0.19400
H 	H 	0.80850 0.37904 0.93308 0.07900
H 	H 	0.71435 0.46238 0.89554 0.05900
H 	H 	0.77533 0.55143 0.98777 0.07900
O 	O 	0.88140 0.97480 0.71474 -0.26400
H 	H 	0.87445 0.84814 0.69081 0.14500
O 	O 	0.11871 0.47561 0.28530 -0.28200
H 	H 	0.12567 0.34913 0.30940 0.14600
O 	O 	0.05666 0.15809 0.76978 -0.28700
H 	H 	0.01582 0.11294 0.78769 0.17500
O 	O 	0.94330 0.65827 0.23015 -0.28700
H 	H 	0.98417 0.61309 0.21230 0.17900
O 	O 	0.19099 0.24913 0.57414 -0.22900
C 	C 	0.21412 0.43435 0.59693 0.08800
H 	H 	0.27458 0.44593 0.60691 0.02700
H 	H 	0.20265 0.48026 0.65142 0.01900
C 	C 	0.17297 0.56739 0.53078 -0.19500
H 	H 	0.11252 0.56165 0.52152 0.08700
H 	H 	0.19275 0.71273 0.54646 0.08000
H 	H 	0.18259 0.52795 0.47503 0.08400
O 	O 	0.80897 0.74931 0.42579 -0.22400
C 	C 	0.78593 0.93455 0.40296 0.09800
H 	H 	0.72542 0.94613 0.39269 0.03000
H 	H 	0.79767 0.98053 0.34863 0.02200
C 	C 	0.82685 0.06752 0.46923 -0.20700
H 	H 	0.88735 0.06159 0.47887 0.08400
H 	H 	0.80719 0.21290 0.45344 0.07900
H 	H 	0.81686 0.02819 0.52480 0.08100
O 	O 	0.42310 0.57712 0.70624 -0.22000
C 	C 	0.49153 0.63802 0.75938 0.09300
H 	H 	0.48629 0.67407 0.81790 0.00900
H 	H 	0.51265 0.76207 0.73573 0.01700
C 	C 	0.54781 0.48121 0.77114 -0.19500
H 	H 	0.55403 0.44136 0.71365 0.09000
H 	H 	0.60200 0.53004 0.81136 0.06000
H 	H 	0.52980 0.35708 0.79753 0.07500
O 	O 	0.57701 0.07686 0.29391 -0.21900
C 	C 	0.50860 0.13712 0.24055 0.07600
H 	H 	0.51389 0.17195 0.18192 0.01000
H 	H 	0.48743 0.26182 0.26376 0.01900
C 	C 	0.45235 0.98034 0.22926 -0.16500
H 	H 	0.44594 0.94209 0.28683 0.08800
H 	H 	0.39824 0.02841 0.18865 0.04600
H 	H 	0.47053 0.85529 0.20354 0.07300
