data_crystal

_cell_length_a 19.08834
_cell_length_b 11.03214
_cell_length_c 18.74039
_cell_angle_alpha 90.06824
_cell_angle_beta  90.13507
_cell_angle_gamma 90.18039

_symmetry_space_group_name_	'P 1'
_symmetry_space_group_name_H-M	'P 1'

loop_
_symmetry_equiv_pos_as_xyz
  x,y,z

loop_
_atom_site_label
_atom_site_type_symbol
_atom_site_fract_x
_atom_site_fract_y
_atom_site_fract_z
_atom_site_charge
C 	C 	0.76174 0.53040 0.64569 0.44600
C 	C 	0.26168 0.98162 0.51936 -0.03700
C 	C 	0.47038 0.94682 0.97030 0.03900
C 	C 	0.00796 0.23049 0.95837 0.01000
C 	C 	0.00966 0.23205 0.03298 0.00100
C 	C 	0.49071 0.73218 0.96655 0.00600
C 	C 	0.49237 0.73029 0.04115 0.00300
C 	C 	0.99864 0.56976 0.03672 -0.06100
C 	C 	0.99491 0.57141 0.95624 -0.07300
C 	C 	0.50581 0.07127 0.04412 -0.07400
C 	C 	0.50214 0.06986 0.96365 -0.07200
C 	C 	0.76117 0.52961 0.85333 0.42400
C 	C 	0.32027 0.58760 0.45000 0.02100
C 	C 	0.23811 0.52692 0.14572 0.42300
C 	C 	0.26194 0.02707 0.85433 0.44600
C 	C 	0.73888 0.02943 0.14671 0.44500
C 	C 	0.77223 0.12568 0.85281 0.41500
C 	C 	0.22816 0.12424 0.14770 0.41700
C 	C 	0.27187 0.62452 0.85235 0.41900
C 	C 	0.72781 0.62540 0.14725 0.42400
C 	C 	0.97133 0.34714 0.85260 0.44200
C 	C 	0.03237 0.34715 0.14485 0.42200
C 	C 	0.46773 0.84736 0.85508 0.42600
C 	C 	0.76167 0.48162 0.51936 0.04500
C 	C 	0.52874 0.84691 0.14735 0.42300
C 	C 	0.75340 0.09895 0.41950 -0.13900
C 	C 	0.25397 0.06793 0.57376 -0.10900
C 	C 	0.25340 0.59894 0.41950 -0.14000
C 	C 	0.75397 0.56793 0.57376 -0.15500
C 	C 	0.69867 0.14316 0.46197 0.05400
C 	C 	0.23080 0.18320 0.55844 0.06600
C 	C 	0.19867 0.64315 0.46197 0.05900
C 	C 	0.73080 0.68320 0.55844 0.08900
C 	C 	0.70984 0.16192 0.53432 0.06200
C 	C 	0.62804 0.08711 0.47516 -0.06100
C 	C 	0.21901 0.21567 0.48821 0.03800
C 	C 	0.20984 0.66192 0.53433 0.05700
C 	C 	0.71901 0.71567 0.48821 0.01500
C 	C 	0.04555 0.89504 0.42684 0.24700
C 	C 	0.06819 0.91888 0.57766 0.25600
C 	C 	0.54551 0.39505 0.42678 0.28600
C 	C 	0.56816 0.41888 0.57761 0.27800
C 	C 	0.96680 0.08181 0.35096 0.30300
C 	C 	0.07467 0.16091 0.63904 0.29600
C 	C 	0.46677 0.58185 0.35092 0.28000
C 	C 	0.26725 0.29825 0.57648 -0.09100
C 	C 	0.57467 0.66091 0.63898 0.29800
C 	C 	0.12804 0.58710 0.47516 -0.09200
C 	C 	0.76725 0.79825 0.57647 -0.10400
C 	C 	0.64243 0.10090 0.55411 -0.09000
C 	C 	0.25709 0.33197 0.49929 -0.08700
C 	C 	0.14243 0.60089 0.55411 -0.08000
C 	C 	0.23887 0.53327 0.35399 0.42600
C 	C 	0.75709 0.83197 0.49928 -0.07500
C 	C 	0.77621 0.14477 0.56454 -0.09800
C 	C 	0.22792 0.13218 0.43324 -0.10600
C 	C 	0.27620 0.64477 0.56454 -0.10100
C 	C 	0.72792 0.63218 0.43324 -0.07300
C 	C 	0.98296 0.32707 0.41590 -0.12400
C 	C 	0.98657 0.34707 0.56556 -0.09900
C 	C 	0.48293 0.82708 0.41588 -0.12600
C 	C 	0.48654 0.84706 0.56554 -0.12000
C 	C 	0.99712 0.10452 0.42471 -0.05800
C 	C 	0.26174 0.03040 0.64569 0.45600
C 	C 	0.03752 0.13842 0.56976 -0.06100
C 	C 	0.49707 0.60453 0.42468 -0.05800
C 	C 	0.53749 0.63841 0.56973 -0.06500
C 	C 	0.02680 0.00861 0.46377 -0.01600
C 	C 	0.04434 0.02425 0.53629 -0.00800
C 	C 	0.52676 0.50862 0.46372 -0.02900
C 	C 	0.54431 0.52425 0.53624 -0.02100
C 	C 	0.00576 0.23559 0.53178 0.01900
C 	C 	0.99350 0.22154 0.45727 0.07700
C 	C 	0.50572 0.73559 0.53176 0.05000
C 	C 	0.73887 0.03327 0.35399 0.45100
C 	C 	0.49346 0.72155 0.45724 0.05700
C 	C 	0.96637 0.44845 0.52152 0.03300
C 	C 	0.95616 0.43038 0.44790 0.05800
C 	C 	0.46633 0.94845 0.52150 0.02000
C 	C 	0.45613 0.93039 0.44788 0.03300
C 	C 	0.78975 0.16732 0.63892 0.33100
C 	C 	0.21035 0.16655 0.36163 0.33400
C 	C 	0.28975 0.66732 0.63892 0.33100
C 	C 	0.71035 0.66655 0.36163 0.32200
C 	C 	0.95749 0.56938 0.54662 -0.04200
C 	C 	0.83219 0.11416 0.52094 -0.01200
C 	C 	0.92303 0.51931 0.40590 -0.05000
C 	C 	0.45744 0.06938 0.54660 -0.02200
C 	C 	0.42302 0.01933 0.40587 -0.02400
C 	C 	0.92667 0.65808 0.50416 -0.01900
C 	C 	0.90631 0.63109 0.43487 -0.00800
C 	C 	0.42665 0.15809 0.50413 -0.02200
C 	C 	0.40630 0.13110 0.43483 -0.01300
C 	C 	0.74580 0.05964 0.07172 -0.12400
C 	C 	0.25706 0.05238 0.93031 -0.12400
C 	C 	0.24313 0.55260 0.06983 -0.13500
C 	C 	0.24777 0.01318 0.44905 0.08100
C 	C 	0.75438 0.55953 0.92841 -0.13700
C 	C 	0.79038 0.98713 0.03125 0.04600
C 	C 	0.21147 0.98084 0.97043 0.04400
C 	C 	0.28814 0.48078 0.02944 0.05500
C 	C 	0.70933 0.48713 0.96863 0.05400
C 	C 	0.79283 0.99588 0.95813 0.03000
C 	C 	0.20866 0.98955 0.04354 0.03200
C 	C 	0.29088 0.48978 0.95633 0.05100
C 	C 	0.70683 0.49559 0.04176 0.05200
C 	C 	0.69891 0.14137 0.96140 -0.00100
C 	C 	0.33219 0.61415 0.52094 -0.01300
C 	C 	0.30567 0.12941 0.04152 0.00200
C 	C 	0.19493 0.63079 0.95895 0.00500
C 	C 	0.80169 0.64026 0.03903 0.00500
C 	C 	0.69704 0.13264 0.03595 0.01200
C 	C 	0.30830 0.11991 0.96690 0.01400
C 	C 	0.19238 0.62099 0.03354 0.01000
C 	C 	0.80361 0.63187 0.96445 0.00800
C 	C 	0.86777 0.97389 0.03846 -0.10300
C 	C 	0.13426 0.96535 0.96277 -0.10600
C 	C 	0.36527 0.46468 0.03689 -0.08700
C 	C 	0.74776 0.51317 0.44905 -0.00100
C 	C 	0.63189 0.47409 0.96127 -0.08700
C 	C 	0.87080 0.98059 0.95819 -0.10300
C 	C 	0.13086 0.97095 0.04321 -0.10400
C 	C 	0.36857 0.47060 0.95647 -0.08900
C 	C 	0.62879 0.48048 0.04156 -0.08900
C 	C 	0.75082 0.08006 0.92230 -0.10700
C 	C 	0.25088 0.07383 0.07964 -0.10700
C 	C 	0.24913 0.57451 0.92052 -0.13100
C 	C 	0.74923 0.57944 0.07784 -0.13300
C 	C 	0.96554 0.34834 0.64274 0.40600
C 	C 	0.82027 0.08761 0.45000 0.02600
C 	C 	0.02570 0.34424 0.35064 0.40200
C 	C 	0.46553 0.84834 0.64273 0.40900
C 	C 	0.52570 0.84424 0.35064 0.41200
C 	C 	0.01658 0.34249 0.06940 -0.13200
C 	C 	0.00777 0.34012 0.92036 -0.14900
C 	C 	0.49250 0.83973 0.07945 -0.13200
C 	C 	0.48384 0.84272 0.93042 -0.13700
C 	C 	0.03014 0.44687 0.02975 0.04100
C 	C 	0.02609 0.44661 0.95674 0.04900
C 	C 	0.47438 0.94627 0.04331 0.03700
Cr	Cr	0.88586 0.49168 0.74963 1.53600
Cr	Cr	0.11243 0.17931 0.24985 1.54000
Cr	Cr	0.38757 0.67931 0.75015 1.53600
Cr	Cr	0.61243 0.67931 0.24985 1.53900
Cr	Cr	0.11414 0.49168 0.25037 1.53600
Cr	Cr	0.38586 0.99168 0.74963 1.52900
Cr	Cr	0.61414 0.99168 0.25037 1.53000
Cr	Cr	0.73049 0.33297 0.74872 1.53600
Cr	Cr	0.26951 0.33297 0.25128 1.53500
Cr	Cr	0.23049 0.83297 0.74872 1.53400
Cr	Cr	0.76951 0.83297 0.25128 1.53500
Cr	Cr	0.88757 0.17931 0.75015 1.53800
H 	H 	0.88371 0.09880 0.54326 0.05300
H 	H 	0.34234 0.18812 0.06853 0.03100
H 	H 	0.15873 0.69024 0.93224 0.02800
H 	H 	0.83715 0.70177 0.06561 0.03000
H 	H 	0.65957 0.18584 0.06561 0.02700
H 	H 	0.34797 0.16910 0.93780 0.02800
H 	H 	0.15317 0.67061 0.06286 0.02700
H 	H 	0.84147 0.68485 0.93500 0.02600
H 	H 	0.88413 0.88497 0.05997 0.04800
H 	H 	0.11857 0.87632 0.94067 0.04500
H 	H 	0.38042 0.37544 0.05869 0.04500
H 	H 	0.25402 0.94632 0.40717 0.02600
H 	H 	0.61517 0.38527 0.93949 0.04400
H 	H 	0.89209 0.05317 0.06556 0.07200
H 	H 	0.10970 0.04421 0.93597 0.06800
H 	H 	0.39038 0.54321 0.06388 0.05400
H 	H 	0.60796 0.55355 0.93437 0.05100
H 	H 	0.89832 0.06254 0.93956 0.07500
H 	H 	0.10197 0.05072 0.06247 0.07200
H 	H 	0.39795 0.55022 0.93741 0.05900
H 	H 	0.60162 0.56242 0.06041 0.05900
H 	H 	0.88744 0.89446 0.93265 0.04500
H 	H 	0.38370 0.59878 0.54326 0.04800
H 	H 	0.11528 0.88361 0.06810 0.04300
H 	H 	0.38356 0.38325 0.93130 0.04400
H 	H 	0.61174 0.39427 0.06684 0.04500
H 	H 	0.00037 0.14545 0.93095 0.02400
H 	H 	0.00308 0.14847 0.06211 0.02700
H 	H 	0.49715 0.64874 0.93719 0.02600
H 	H 	0.49985 0.64522 0.06835 0.02800
H 	H 	0.03542 0.63792 0.05903 0.03000
H 	H 	0.94032 0.57329 0.93660 0.05600
H 	H 	0.56039 0.07342 0.06379 0.06000
H 	H 	0.75401 0.44632 0.40717 0.06100
H 	H 	0.46553 0.13794 0.94147 0.04400
H 	H 	0.94642 0.56720 0.06278 0.05000
H 	H 	0.03037 0.63961 0.93172 0.03000
H 	H 	0.47047 0.13922 0.06879 0.04300
H 	H 	0.55437 0.06762 0.93762 0.05500
H 	H 	0.86047 0.03816 0.42326 0.05600
H 	H 	0.27879 0.89066 0.53148 0.05100
H 	H 	0.36046 0.53816 0.42325 0.05100
H 	H 	0.77879 0.39065 0.53148 0.03400
H 	H 	0.12287 0.49142 0.45748 0.05800
H 	H 	0.92080 0.74933 0.52433 0.04600
H 	H 	0.82279 0.78555 0.59228 0.05900
H 	H 	0.62287 0.99143 0.45748 0.04000
H 	H 	0.32278 0.28555 0.59228 0.05900
H 	H 	0.58443 0.14525 0.45658 0.06700
H 	H 	0.23641 0.35508 0.61386 0.06900
H 	H 	0.08443 0.64523 0.45658 0.06800
H 	H 	0.73641 0.85508 0.61386 0.06700
H 	H 	0.60466 0.16071 0.58125 0.06800
H 	H 	0.22136 0.40808 0.49318 0.05600
H 	H 	0.10466 0.66071 0.58125 0.06200
H 	H 	0.88191 0.69950 0.40197 0.04600
H 	H 	0.72136 0.90808 0.49317 0.04600
H 	H 	0.65045 0.01293 0.58171 0.07400
H 	H 	0.30665 0.33760 0.46858 0.06000
H 	H 	0.15045 0.51292 0.58171 0.06100
H 	H 	0.80665 0.83760 0.46858 0.05300
H 	H 	0.91081 0.50241 0.35026 0.05900
H 	H 	0.97820 0.60185 0.59655 0.05600
H 	H 	0.41081 0.00242 0.35023 0.05800
H 	H 	0.47814 0.10184 0.59653 0.05400
H 	H 	0.12113 0.80160 0.37627 0.14700
H 	H 	0.42077 0.24934 0.52430 0.04800
H 	H 	0.04729 0.79949 0.65640 0.13100
H 	H 	0.62110 0.30159 0.37625 0.15200
H 	H 	0.54728 0.29950 0.65636 0.13500
H 	H 	0.97247 0.99382 0.25651 0.13300
H 	H 	0.09724 0.10447 0.73889 0.15500
H 	H 	0.47246 0.49394 0.25644 0.13400
H 	H 	0.59737 0.60440 0.73879 0.15200
H 	H 	0.38191 0.19952 0.40193 0.04900
H 	H 	0.66389 0.20345 0.93509 0.03200
O 	O 	0.95702 0.45164 0.66992 -0.47900
O 	O 	0.16804 0.09329 0.16987 -0.47500
O 	O 	0.33196 0.59329 0.83013 -0.48400
O 	O 	0.66804 0.59329 0.16987 -0.48300
O 	O 	0.94560 0.25058 0.82486 -0.52400
O 	O 	0.05440 0.25058 0.17514 -0.52300
O 	O 	0.44560 0.75058 0.82486 -0.52700
O 	O 	0.55440 0.75058 0.17514 -0.52400
O 	O 	0.83464 0.33465 0.74950 -0.74600
O 	O 	0.16536 0.33465 0.25050 -0.74600
O 	O 	0.33464 0.83465 0.74950 -0.75100
O 	O 	0.04298 0.45164 0.33008 -0.48000
O 	O 	0.66536 0.83465 0.25050 -0.74900
O 	O 	0.82145 0.54344 0.67461 -0.53700
O 	O 	0.17855 0.54344 0.32539 -0.53100
O 	O 	0.32145 0.04344 0.67461 -0.52700
O 	O 	0.67855 0.04344 0.32539 -0.52400
O 	O 	0.71532 0.45865 0.66810 -0.47100
O 	O 	0.28468 0.45865 0.33190 -0.48000
O 	O 	0.21532 0.95865 0.66810 -0.48900
O 	O 	0.78468 0.95865 0.33190 -0.50200
O 	O 	0.73717 0.20959 0.67453 -0.48300
O 	O 	0.45702 0.95164 0.66992 -0.49200
O 	O 	0.26283 0.20959 0.32547 -0.49000
O 	O 	0.23717 0.70959 0.67453 -0.48600
O 	O 	0.76283 0.70959 0.32547 -0.48800
O 	O 	0.83271 0.09274 0.66958 -0.43700
O 	O 	0.16729 0.09274 0.33042 -0.42000
O 	O 	0.33271 0.59274 0.66958 -0.44400
O 	O 	0.66729 0.59274 0.33042 -0.42200
O 	O 	0.94629 0.25006 0.67604 -0.50400
O 	O 	0.05371 0.25006 0.32396 -0.51400
O 	O 	0.44629 0.75006 0.67604 -0.51000
O 	O 	0.54298 0.95164 0.33008 -0.48700
O 	O 	0.55371 0.75006 0.32396 -0.51400
O 	O 	0.95627 0.45220 0.83047 -0.48800
O 	O 	0.04373 0.45220 0.16953 -0.49000
O 	O 	0.45627 0.95220 0.83047 -0.49600
O 	O 	0.54373 0.95220 0.16953 -0.49800
O 	O 	0.82076 0.54395 0.82344 -0.53000
O 	O 	0.17924 0.54395 0.17656 -0.52800
O 	O 	0.32076 0.04395 0.82344 -0.52300
O 	O 	0.67924 0.04395 0.17656 -0.52200
O 	O 	0.71457 0.45921 0.82864 -0.48800
O 	O 	0.73647 0.21010 0.82336 -0.52100
O 	O 	0.28543 0.45921 0.17136 -0.48300
O 	O 	0.21457 0.95921 0.82864 -0.50900
O 	O 	0.78543 0.95921 0.17136 -0.50200
O 	O 	0.99979 0.82575 0.40668 -0.23400
O 	O 	0.11545 0.87315 0.40969 -0.28600
O 	O 	0.12592 0.87661 0.56633 -0.22900
O 	O 	0.02435 0.86835 0.62942 -0.31400
O 	O 	0.49974 0.32578 0.40660 -0.25000
O 	O 	0.61541 0.37314 0.40966 -0.28700
O 	O 	0.62590 0.37663 0.56628 -0.23000
O 	O 	0.26353 0.21010 0.17664 -0.52300
O 	O 	0.52434 0.36834 0.62937 -0.30600
O 	O 	0.91843 0.14430 0.32905 -0.24100
O 	O 	0.99677 0.99710 0.30465 -0.34900
O 	O 	0.10827 0.25445 0.64743 -0.25200
O 	O 	0.07012 0.07762 0.69502 -0.31200
O 	O 	0.41839 0.64434 0.32902 -0.24400
O 	O 	0.49675 0.49718 0.30460 -0.33600
O 	O 	0.60825 0.75448 0.64736 -0.25400
O 	O 	0.57019 0.57758 0.69495 -0.31800
O 	O 	0.23647 0.71010 0.82336 -0.52500
O 	O 	0.76353 0.71010 0.17664 -0.52700
O 	O 	0.83196 0.09329 0.83013 -0.47500
