data_crystal

_cell_length_a 6.94257
_cell_length_b 14.79736
_cell_length_c 21.32298
_cell_angle_alpha 74.77500
_cell_angle_beta  90.05509
_cell_angle_gamma 90.63875

_symmetry_space_group_name_	'P 1'
_symmetry_space_group_name_H-M	'P 1'

loop_
_symmetry_equiv_pos_as_xyz
  x,y,z

loop_
_atom_site_label
_atom_site_type_symbol
_atom_site_fract_x
_atom_site_fract_y
_atom_site_fract_z
_atom_site_charge
O 	O 	0.64815 0.13005 0.21430 -0.47700
O 	O 	0.35185 0.86995 0.78570 -0.47700
O 	O 	0.32049 0.00666 0.34015 -0.49300
O 	O 	0.67951 0.99334 0.65985 -0.49300
O 	O 	0.14610 0.86994 0.28570 -0.47500
O 	O 	0.85390 0.13006 0.71430 -0.47500
C 	C 	0.48865 0.00143 0.36709 0.37800
C 	C 	0.51135 0.99857 0.63291 0.37800
O 	O 	0.31869 0.13798 0.21812 -0.48700
O 	O 	0.68131 0.86202 0.78188 -0.48700
O 	O 	0.14428 0.00219 0.16280 -0.48600
O 	O 	0.85572 0.99781 0.83720 -0.48600
C 	C 	0.48866 0.17555 0.20596 0.38700
C 	C 	0.51135 0.82446 0.79404 0.38700
O 	O 	0.64996 0.99779 0.33720 -0.48400
O 	O 	0.35004 0.00221 0.66280 -0.48400
O 	O 	0.47930 0.95529 0.23199 -0.64200
O 	O 	0.52070 0.04471 0.76801 -0.64200
V 	V 	0.20604 0.00829 0.25334 1.80700
V 	V 	0.79396 0.99171 0.74666 1.80700
O 	O 	0.81432 0.99332 0.15985 -0.49400
O 	O 	0.18568 0.00668 0.84015 -0.49400
C 	C 	0.98314 0.99837 0.13284 0.37300
C 	C 	0.01686 0.00163 0.86716 0.37300
O 	O 	0.81612 0.86200 0.28188 -0.48500
O 	O 	0.18388 0.13800 0.71812 -0.48500
C 	C 	0.98406 0.82450 0.29413 0.38200
C 	C 	0.01594 0.17550 0.70587 0.38200
V 	V 	0.70554 0.99170 0.24666 1.80700
V 	V 	0.29446 0.00830 0.75334 1.80700
O 	O 	0.98215 0.04470 0.26801 -0.63600
O 	O 	0.01785 0.95530 0.73199 -0.63600
C 	C 	0.99014 0.72334 0.32194 -0.10800
C 	C 	0.00986 0.27666 0.67806 -0.10800
C 	C 	0.99307 0.56664 0.30850 -0.07800
C 	C 	0.00693 0.43336 0.69150 -0.07800
C 	C 	0.98868 0.66301 0.28152 0.03700
C 	C 	0.01132 0.33699 0.71848 0.03700
C 	C 	0.99430 0.68755 0.38947 0.01800
C 	C 	0.00570 0.31245 0.61053 0.01800
C 	C 	0.99650 0.58976 0.41838 -0.02400
C 	C 	0.00350 0.41024 0.58162 -0.02400
C 	C 	0.99725 0.52966 0.37626 0.04900
C 	C 	0.00275 0.47034 0.62374 0.04900
C 	C 	0.99798 0.54983 0.48728 0.01000
C 	C 	0.00201 0.45017 0.51272 0.01000
C 	C 	0.00511 0.39386 0.46844 -0.02800
C 	C 	0.99489 0.60614 0.53156 -0.02800
C 	C 	0.00232 0.43303 0.40181 -0.05600
C 	C 	0.99768 0.56697 0.59819 -0.05600
H 	H 	0.00462 0.38699 0.36979 0.05400
H 	H 	0.99538 0.61301 0.63021 0.05400
H 	H 	0.00483 0.26172 0.58240 0.03300
H 	H 	0.99517 0.73828 0.41760 0.03300
H 	H 	0.01536 0.30942 0.77082 0.02600
H 	H 	0.98464 0.69058 0.22918 0.02600
H 	H 	0.99279 0.52081 0.27631 0.05200
H 	H 	0.00721 0.47919 0.72369 0.05200
H 	H 	0.01005 0.31862 0.48345 0.04400
H 	H 	0.98994 0.68138 0.51655 0.04400
C 	C 	0.82038 0.99469 0.97777 -0.00700
C 	C 	0.17962 0.00532 0.02223 -0.00700
C 	C 	0.91489 0.92019 0.03393 -0.01100
C 	C 	0.08511 0.07981 0.96607 -0.01000
H 	H 	0.84469 0.85436 0.06228 0.03600
H 	H 	0.15531 0.14564 0.93772 0.03600
H 	H 	0.67192 0.99035 0.95927 0.04500
H 	H 	0.32808 0.00965 0.04072 0.04500
C 	C 	0.99278 0.99893 0.06223 -0.08500
C 	C 	0.00722 0.00107 0.93777 -0.08500
C 	C 	0.89833 0.07344 0.00687 0.00400
C 	C 	0.10167 0.92656 0.99313 0.00400
H 	H 	0.81422 0.13395 0.01297 0.03600
H 	H 	0.18577 0.86605 0.98703 0.03600
C 	C 	0.60783 0.07023 0.46613 0.00800
C 	C 	0.39217 0.92977 0.53387 0.00800
C 	C 	0.43146 0.08169 0.50733 -0.00800
C 	C 	0.56854 0.91831 0.49267 -0.00800
H 	H 	0.37632 0.14902 0.51345 0.04000
H 	H 	0.62368 0.85098 0.48655 0.04000
C 	C 	0.50475 0.99925 0.56243 -0.08100
C 	C 	0.49525 0.00075 0.43757 -0.08100
C 	C 	0.68325 0.98896 0.52146 -0.00600
C 	C 	0.31675 0.01104 0.47854 -0.00600
H 	H 	0.83444 0.98065 0.53892 0.04600
H 	H 	0.16556 0.01935 0.46108 0.04600
C 	C 	0.50338 0.27675 0.17828 -0.10800
C 	C 	0.49662 0.72325 0.82172 -0.10700
C 	C 	0.59970 0.42933 0.18850 -0.07500
C 	C 	0.40030 0.57067 0.81150 -0.07500
C 	C 	0.56881 0.33421 0.21644 0.03600
C 	C 	0.43119 0.66579 0.78356 0.03600
C 	C 	0.46945 0.31428 0.11191 0.01700
C 	C 	0.53055 0.68572 0.88809 0.01700
C 	C 	0.50405 0.41046 0.08176 -0.02400
C 	C 	0.49595 0.58954 0.91824 -0.02400
C 	C 	0.56970 0.46765 0.12169 0.04600
C 	C 	0.43030 0.53235 0.87831 0.04600
C 	C 	0.47923 0.45123 0.01350 0.00800
C 	C 	0.52077 0.54877 0.98650 0.00800
C 	C 	0.58486 0.60228 0.02868 -0.03100
C 	C 	0.41514 0.39771 0.97132 -0.03100
C 	C 	0.60808 0.56240 0.09473 -0.05600
C 	C 	0.39192 0.43760 0.90527 -0.05600
H 	H 	0.65843 0.60631 0.12502 0.04500
H 	H 	0.34157 0.39369 0.87498 0.04500
H 	H 	0.57791 0.73442 0.91473 0.03200
H 	H 	0.42209 0.26559 0.08527 0.03200
H 	H 	0.40221 0.69485 0.73231 0.03500
H 	H 	0.59779 0.30515 0.26769 0.03500
H 	H 	0.65077 0.47279 0.21897 0.05100
H 	H 	0.34923 0.52721 0.78103 0.05100
H 	H 	0.61962 0.67577 0.01241 0.03800
H 	H 	0.38038 0.32423 0.98759 0.03800
C 	C 	0.72816 0.14744 0.42830 0.07900
N 	N 	0.82320 0.20816 0.39829 -0.11500
C 	C 	0.27184 0.85256 0.57170 0.07900
N 	N 	0.17680 0.79184 0.60171 -0.11500
