data_crystal

_cell_length_a 7.94156
_cell_length_b 8.55345
_cell_length_c 10.53653
_cell_angle_alpha 91.57792
_cell_angle_beta  84.50916
_cell_angle_gamma 93.47525

_symmetry_space_group_name_	'P 1'
_symmetry_space_group_name_H-M	'P 1'

loop_
_symmetry_equiv_pos_as_xyz
  x,y,z

loop_
_atom_site_label
_atom_site_type_symbol
_atom_site_fract_x
_atom_site_fract_y
_atom_site_fract_z
_atom_site_charge
C 	C 	0.54505 0.79395 0.49665 0.37500
C 	C 	0.93891 0.39234 0.01853 -0.09000
C 	C 	0.03918 0.50257 0.08341 -0.06300
C 	C 	0.96082 0.49745 0.91659 -0.06300
C 	C 	0.18140 0.44461 0.12912 0.29500
C 	C 	0.81860 0.55541 0.87087 0.29500
C 	C 	0.34299 0.48254 0.06983 -0.03500
C 	C 	0.65701 0.51747 0.93017 -0.03500
C 	C 	0.35938 0.56098 0.95460 -0.04300
C 	C 	0.64062 0.43903 0.04540 -0.04300
C 	C 	0.48897 0.44522 0.12352 0.02100
C 	C 	0.45494 0.20605 0.50335 0.37600
C 	C 	0.51103 0.55479 0.87648 0.02100
C 	C 	0.56842 0.95780 0.49486 -0.08400
C 	C 	0.43158 0.04220 0.50514 -0.08400
C 	C 	0.50413 0.52351 0.73944 0.33000
C 	C 	0.49588 0.47649 0.26056 0.33000
C 	C 	0.22338 0.64284 0.92200 0.31300
C 	C 	0.77662 0.35717 0.07800 0.31300
C 	C 	0.06109 0.60767 0.98147 -0.09000
F 	F 	0.24615 0.75565 0.83252 -0.41700
F 	F 	0.75385 0.24435 0.16748 -0.41700
F 	F 	0.15845 0.32668 0.21405 -0.42600
F 	F 	0.84155 0.67333 0.78595 -0.42700
H 	H 	0.02999 0.44690 0.83224 0.07900
H 	H 	0.97001 0.55311 0.16776 0.07900
H 	H 	0.00210 0.71854 0.00225 0.10900
H 	H 	0.99790 0.28147 0.99775 0.10900
H 	H 	0.69788 0.00840 0.48504 0.11500
H 	H 	0.30212 0.99160 0.51496 0.11500
H 	H 	0.00747 0.36673 0.41767 0.13200
H 	H 	0.99253 0.63327 0.58233 0.13200
N 	N 	0.95033 0.45795 0.46625 -0.21700
N 	N 	0.04967 0.54205 0.53375 -0.21700
O 	O 	0.38925 0.73857 0.50828 -0.42100
O 	O 	0.61075 0.26143 0.49172 -0.42100
O 	O 	0.67839 0.71163 0.48665 -0.42100
O 	O 	0.32161 0.28837 0.51335 -0.42100
O 	O 	0.35543 0.51348 0.69404 -0.39500
O 	O 	0.64457 0.48652 0.30596 -0.39500
O 	O 	0.64457 0.48654 0.67241 -0.39300
O 	O 	0.35543 0.51346 0.32759 -0.39300
Zn	Zn	0.30694 0.51799 0.51444 1.23600
Zn	Zn	0.69306 0.48201 0.48556 1.23600
