data_crystal

_cell_length_a 11.08262
_cell_length_b 10.87162
_cell_length_c 18.71933
_cell_angle_alpha 89.75351
_cell_angle_beta  89.87065
_cell_angle_gamma 59.79845

_symmetry_space_group_name_	'P 1'
_symmetry_space_group_name_H-M	'P 1'

loop_
_symmetry_equiv_pos_as_xyz
  x,y,z

loop_
_atom_site_label
_atom_site_type_symbol
_atom_site_fract_x
_atom_site_fract_y
_atom_site_fract_z
_atom_site_charge
O 	O 	0.50743 0.25557 0.58142 -0.39700
O 	O 	0.28019 0.52739 0.57891 -0.51300
C 	C 	0.22891 0.65020 0.60746 0.44700
O 	O 	0.26031 0.73974 0.58458 -0.44600
O 	O 	0.53225 0.69515 0.57383 -0.49800
C 	C 	0.65506 0.62584 0.59935 0.40600
O 	O 	0.74493 0.50343 0.57638 -0.49500
O 	O 	0.69925 0.27639 0.57195 -0.46600
C 	C 	0.59509 0.28830 0.61009 0.29600
O 	O 	0.49902 0.25640 0.41985 -0.45300
O 	O 	0.27240 0.52816 0.42914 -0.46300
C 	C 	0.28608 0.62209 0.39234 0.32800
O 	O 	0.25191 0.74057 0.42302 -0.41100
O 	O 	0.52446 0.69592 0.42406 -0.52600
C 	C 	0.64451 0.62822 0.39453 0.39700
O 	O 	0.73653 0.50426 0.41481 -0.48900
O 	O 	0.69146 0.27716 0.42218 -0.50900
C 	C 	0.61735 0.22920 0.39518 0.41500
Cr	Cr	0.39293 0.39790 0.50223 1.54000
Cr	Cr	0.39824 0.70860 0.50126 1.53500
Cr	Cr	0.70880 0.39347 0.49646 1.53300
O 	O 	0.49999 0.49999 0.49998 -0.75600
C 	C 	0.58493 0.83333 0.77897 -0.09000
H 	H 	0.58887 0.93145 0.79075 0.02900
H 	H 	0.49408 0.84664 0.81068 0.06700
C 	C 	0.56385 0.81939 0.69736 0.10100
H 	H 	0.84439 0.70526 0.64014 0.03700
C 	C 	0.84243 0.68037 0.75893 -0.06600
C 	C 	0.69751 0.56968 0.79942 -0.05800
C 	C 	0.71966 0.69853 0.80658 -0.03200
H 	H 	0.78987 0.47055 0.81959 0.04700
H 	H 	0.60577 0.58693 0.83167 0.06200
C 	C 	0.67700 0.66272 0.67252 -0.08900
C 	C 	0.82479 0.64309 0.68098 -0.02900
C 	C 	0.67445 0.54818 0.72157 -0.03500
H 	H 	0.57793 0.54235 0.71530 0.05400
H 	H 	0.76143 0.44225 0.70577 0.03800
H 	H 	0.93843 0.58910 0.78054 0.00600
H 	H 	0.90596 0.53047 0.67040 0.01600
C 	C 	0.75419 0.21093 0.71635 -0.01900
H 	H 	0.83882 0.19968 0.68333 0.05600
C 	C 	0.77722 0.17760 0.78892 0.04200
H 	H 	0.88178 0.13262 0.81015 0.02800
C 	C 	0.66765 0.19116 0.83185 -0.12700
C 	C 	0.53133 0.25313 0.80264 0.13600
C 	C 	0.51243 0.27885 0.72997 -0.06200
H 	H 	0.41173 0.31244 0.70706 0.07600
C 	C 	0.62284 0.25599 0.68616 -0.02200
C 	C 	0.17852 0.56102 0.71829 0.04700
H 	H 	0.19140 0.46712 0.69162 0.06000
C 	C 	0.17367 0.56645 0.79256 -0.00400
H 	H 	0.17114 0.48209 0.82161 0.08800
C 	C 	0.15550 0.68692 0.82846 -0.05600
C 	C 	0.13270 0.80615 0.78834 -0.03200
H 	H 	0.10687 0.90476 0.81475 0.06400
C 	C 	0.12575 0.80598 0.71396 0.16400
C 	C 	0.16551 0.67634 0.67869 -0.12100
C 	C 	0.80585 0.60242 0.29992 -0.06400
H 	H 	0.88976 0.52705 0.33401 0.04100
C 	C 	0.82941 0.60466 0.22719 0.12800
C 	C 	0.71777 0.70760 0.18333 -0.14500
C 	C 	0.58852 0.80151 0.21536 0.00700
H 	H 	0.50231 0.88102 0.18401 0.01300
C 	C 	0.56532 0.78609 0.28717 -0.03100
H 	H 	0.46264 0.85071 0.30961 0.04300
C 	C 	0.67245 0.68068 0.32830 -0.09300
C 	C 	0.55728 0.14448 0.28867 0.01800
H 	H 	0.48334 0.12657 0.31831 0.07700
C 	C 	0.55382 0.14229 0.21560 0.01000
H 	H 	0.48148 0.11560 0.19123 0.07600
C 	C 	0.64799 0.16437 0.17509 -0.09700
C 	C 	0.74014 0.19995 0.20887 0.01900
C 	C 	0.74125 0.20364 0.28296 0.01700
H 	H 	0.80838 0.23536 0.30922 0.05900
C 	C 	0.64805 0.17894 0.32271 -0.09700
C 	C 	0.22095 0.75994 0.27884 0.10700
C 	C 	0.21295 0.75877 0.20610 -0.02500
H 	H 	0.19450 0.85467 0.17863 0.06900
C 	C 	0.19235 0.65563 0.17233 -0.08100
C 	C 	0.23222 0.52743 0.20711 0.01000
H 	H 	0.23265 0.44021 0.17938 0.05300
C 	C 	0.26653 0.51526 0.27943 0.01300
H 	H 	0.29666 0.41606 0.30683 0.05800
C 	C 	0.25235 0.63440 0.31675 -0.08700
O 	O 	0.08949 0.82561 0.93061 -0.43200
O 	O 	0.81837 0.05454 0.92988 -0.46600
C 	C 	0.69790 0.10910 0.89838 0.41200
O 	O 	0.60587 0.07731 0.91553 -0.39300
O 	O 	0.64644 0.80670 0.91757 -0.49700
C 	C 	0.75104 0.71047 0.88269 0.30400
O 	O 	0.83720 0.59329 0.91525 -0.45800
O 	O 	0.06533 0.63537 0.93159 -0.43100
C 	C 	0.11383 0.70912 0.90378 0.39900
O 	O 	0.06830 0.82879 0.09186 -0.44700
O 	O 	0.79873 0.05748 0.07937 -0.47800
C 	C 	0.67389 0.10915 0.10316 0.39200
O 	O 	0.58468 0.08048 0.07679 -0.42400
O 	O 	0.62679 0.80964 0.06705 -0.51600
C 	C 	0.73442 0.71761 0.10566 0.30600
O 	O 	0.81601 0.59646 0.07650 -0.47800
O 	O 	0.04568 0.63831 0.08107 -0.45700
C 	C 	0.10562 0.70290 0.10827 0.39700
Cr	Cr	0.93762 0.93854 0.00764 1.42600
Cr	Cr	0.62515 0.93745 0.99452 1.50500
Cr	Cr	0.93799 0.62508 0.00119 1.46500
O 	O 	0.83359 0.83369 0.00112 -0.85700
N 	N 	0.41334 0.27782 0.84497 -0.02700
O 	O 	0.38800 0.34537 0.90539 -0.10300
O 	O 	0.33826 0.22204 0.82614 -0.07100
N 	N 	0.07892 0.93733 0.67551 -0.07300
O 	O 	0.01078 0.96064 0.61574 -0.07000
O 	O 	0.08681 0.04142 0.70484 0.06100
C 	C 	0.96802 0.48878 0.20118 -0.33300
H 	H 	0.00216 0.47945 0.14695 0.22900
O 	O 	0.04925 0.39536 0.24174 0.07800
C 	C 	0.83283 0.23649 0.16811 0.10900
H 	H 	0.80646 0.27701 0.11389 0.00500
O 	O 	0.94066 0.21987 0.19445 -0.20900
N 	N 	0.17224 0.89613 0.31224 -0.01700
O 	O 	0.21118 0.98247 0.28702 -0.14200
O 	O 	0.05856 0.94996 0.35031 -0.08200
N 	N 	0.42167 0.84594 0.68768 -0.01700
O 	O 	0.33531 0.94234 0.64309 -0.14700
O 	O 	0.38069 0.77258 0.72457 -0.12600
C 	C 	0.57746 0.93266 0.65552 -0.06600
H 	H 	0.54511 0.03459 0.67982 0.17700
O 	O 	0.61480 0.91525 0.59312 -0.17800
C 	C 	0.85305 0.81402 0.76370 0.10200
H 	H 	0.86986 0.84743 0.81531 -0.05400
O 	O 	0.83610 0.88945 0.71188 -0.26700
