data_crystal

_cell_length_a 23.23610
_cell_length_b 7.29881
_cell_length_c 15.09319
_cell_angle_alpha 90.25257
_cell_angle_beta  108.22201
_cell_angle_gamma 89.79384

_symmetry_space_group_name_	'P 1'
_symmetry_space_group_name_H-M	'P 1'

loop_
_symmetry_equiv_pos_as_xyz
  x,y,z

loop_
_atom_site_label
_atom_site_type_symbol
_atom_site_fract_x
_atom_site_fract_y
_atom_site_fract_z
_atom_site_charge
O 	O 	0.71100 0.64861 0.34117 -0.46300
O 	O 	0.28900 0.35139 0.65883 -0.46300
O 	O 	0.78900 0.14861 0.15883 -0.46300
O 	O 	0.21100 0.85139 0.84117 -0.46300
O 	O 	0.82965 0.32203 0.33665 -0.49400
O 	O 	0.17035 0.67797 0.66335 -0.49400
O 	O 	0.67035 0.82203 0.16335 -0.49500
O 	O 	0.32965 0.17797 0.83665 -0.49500
C 	C 	0.85425 0.48575 0.35686 0.37600
C 	C 	0.14575 0.51425 0.64314 0.37600
C 	C 	0.64575 0.98585 0.14313 0.37800
C 	C 	0.35425 0.01415 0.85688 0.37800
O 	O 	0.71395 0.31928 0.35207 -0.46800
O 	O 	0.28605 0.68072 0.64793 -0.46800
O 	O 	0.78605 0.81928 0.14793 -0.46700
O 	O 	0.21395 0.18072 0.85207 -0.46700
O 	O 	0.67247 0.14287 0.17436 -0.49300
O 	O 	0.32753 0.85713 0.82564 -0.49300
O 	O 	0.82753 0.64287 0.32564 -0.49200
O 	O 	0.17247 0.35713 0.67436 -0.49200
C 	C 	0.70213 0.48804 0.37639 0.33800
C 	C 	0.29787 0.51196 0.62361 0.33800
C 	C 	0.79789 0.98706 0.12358 0.33800
C 	C 	0.20211 0.01294 0.87642 0.33800
O 	O 	0.73653 0.47865 0.19168 -0.59900
O 	O 	0.26347 0.52135 0.80832 -0.59900
O 	O 	0.76347 0.97865 0.30832 -0.59800
O 	O 	0.23653 0.02135 0.69168 -0.59800
V 	V 	0.75250 0.20617 0.26082 1.79600
V 	V 	0.24750 0.79383 0.73918 1.79600
V 	V 	0.74750 0.70617 0.23918 1.79600
V 	V 	0.25250 0.29383 0.76082 1.79600
C 	C 	0.82633 0.99320 0.04972 -0.10700
C 	C 	0.17368 0.00683 0.95029 -0.10700
C 	C 	0.67363 0.49872 0.45012 -0.10900
C 	C 	0.32636 0.50126 0.54988 -0.10900
C 	C 	0.82244 0.98357 0.88793 -0.09700
C 	C 	0.17756 0.01681 0.11207 -0.09700
C 	C 	0.67716 0.54281 0.61045 -0.09800
C 	C 	0.32284 0.45704 0.38956 -0.09800
C 	C 	0.79164 0.98422 0.95466 0.08000
C 	C 	0.20836 0.01603 0.04535 0.08000
C 	C 	0.70806 0.52846 0.54412 0.08100
C 	C 	0.29194 0.47141 0.45589 0.08100
C 	C 	0.88953 0.00120 0.07671 0.01600
C 	C 	0.11048 0.99875 0.92329 0.01600
C 	C 	0.61058 0.48439 0.42374 0.01800
C 	C 	0.38941 0.51564 0.57626 0.01800
C 	C 	0.92095 0.99839 0.01040 -0.02600
C 	C 	0.07905 0.00182 0.98961 -0.02600
C 	C 	0.57903 0.50086 0.48953 -0.02800
C 	C 	0.42097 0.49908 0.51047 -0.02800
C 	C 	0.88599 0.98936 0.91495 0.05100
C 	C 	0.11402 0.01101 0.08506 0.05100
C 	C 	0.61373 0.53038 0.58394 0.05200
C 	C 	0.38627 0.46949 0.41607 0.05200
C 	C 	0.98572 0.00276 0.03567 0.00800
C 	C 	0.01429 0.99754 0.96434 0.00800
C 	C 	0.51437 0.49021 0.46466 0.00900
C 	C 	0.48563 0.50971 0.53534 0.00900
C 	C 	0.97713 0.98859 0.87022 -0.03000
C 	C 	0.02287 0.01189 0.12979 -0.03000
C 	C 	0.52253 0.53879 0.62845 -0.03000
C 	C 	0.47747 0.46106 0.37156 -0.03000
C 	C 	0.91450 0.98493 0.84643 -0.06000
C 	C 	0.08550 0.01559 0.15358 -0.06000
C 	C 	0.58507 0.54854 0.65186 -0.06000
C 	C 	0.41493 0.45128 0.34814 -0.06000
H 	H 	0.88805 0.97777 0.77322 0.04300
H 	H 	0.11195 0.02292 0.22679 0.04300
H 	H 	0.61131 0.57134 0.72427 0.04300
H 	H 	0.38869 0.42842 0.27574 0.04300
H 	H 	0.08744 0.99283 0.84939 0.03500
H 	H 	0.91256 0.00683 0.15061 0.03500
H 	H 	0.41226 0.53767 0.64940 0.03500
H 	H 	0.58774 0.46249 0.35059 0.03500
H 	H 	0.79752 0.97728 0.81430 0.05100
H 	H 	0.20248 0.02324 0.18570 0.05100
H 	H 	0.70189 0.56486 0.68331 0.05100
H 	H 	0.29812 0.43492 0.31670 0.05100
H 	H 	0.99475 0.98391 0.81230 0.04100
H 	H 	0.00526 0.01679 0.18772 0.04100
H 	H 	0.50478 0.55509 0.68582 0.04100
H 	H 	0.49523 0.44469 0.31420 0.04100
C 	C 	0.41674 0.00686 0.91884 -0.10300
C 	C 	0.58327 0.99314 0.08116 -0.10300
C 	C 	0.08327 0.50710 0.58116 -0.10300
C 	C 	0.91673 0.49290 0.41884 -0.10300
C 	C 	0.46913 0.00234 0.97002 0.04100
C 	C 	0.53087 0.99766 0.02998 0.04100
C 	C 	0.03087 0.50246 0.52999 0.04100
C 	C 	0.96913 0.49754 0.47002 0.04100
C 	C 	0.27726 0.02514 0.07226 -0.08800
C 	C 	0.31141 0.03258 0.17688 -0.12800
H 	H 	0.29844 0.15711 0.20876 0.05200
H 	H 	0.30218 0.90777 0.21205 0.05400
H 	H 	0.36089 0.03873 0.18766 0.05700
H 	H 	0.29365 0.90302 0.04287 0.05700
H 	H 	0.28989 0.14874 0.03981 0.05700
C 	C 	0.72274 0.97520 0.92774 -0.08800
C 	C 	0.68859 0.96794 0.82312 -0.12800
H 	H 	0.69783 0.09280 0.78801 0.05400
H 	H 	0.70155 0.84346 0.79119 0.05200
H 	H 	0.63911 0.96183 0.81234 0.05700
H 	H 	0.71010 0.85155 0.96014 0.05700
H 	H 	0.70637 0.09728 0.95719 0.05700
C 	C 	0.22321 0.45557 0.42968 -0.09000
C 	C 	0.18938 0.42328 0.32622 -0.12900
H 	H 	0.19684 0.53924 0.28368 0.05500
H 	H 	0.20425 0.29265 0.30214 0.05300
H 	H 	0.14002 0.41355 0.31591 0.05700
H 	H 	0.21216 0.34037 0.46945 0.06100
H 	H 	0.20515 0.58347 0.45142 0.05600
C 	C 	0.77679 0.54424 0.57033 -0.09000
C 	C 	0.81063 0.57639 0.67380 -0.12900
H 	H 	0.79578 0.70700 0.69792 0.05300
H 	H 	0.80315 0.46039 0.71630 0.05500
H 	H 	0.85999 0.58606 0.68412 0.05700
H 	H 	0.79484 0.41636 0.54855 0.05600
H 	H 	0.78786 0.65948 0.53060 0.06100
