data_crystal

_cell_length_a 21.64757
_cell_length_b 7.07074
_cell_length_c 14.86430
_cell_angle_alpha 89.92926
_cell_angle_beta  106.19578
_cell_angle_gamma 89.94502

_symmetry_space_group_name_	'P 1'
_symmetry_space_group_name_H-M	'P 1'

loop_
_symmetry_equiv_pos_as_xyz
  x,y,z

loop_
_atom_site_label
_atom_site_type_symbol
_atom_site_fract_x
_atom_site_fract_y
_atom_site_fract_z
_atom_site_charge
O 	O 	0.58585 0.50577 0.00213 -0.48500
O 	O 	0.41415 0.00577 0.99787 -0.48100
O 	O 	0.46753 0.17356 0.86197 -0.46600
O 	O 	0.53247 0.67356 0.13803 -0.46500
C 	C 	0.45588 0.34464 0.82524 0.33800
C 	C 	0.54430 0.84437 0.17472 0.33100
O 	O 	0.58869 0.17590 0.99325 -0.48800
O 	O 	0.41131 0.67590 0.00675 -0.48700
O 	O 	0.53617 0.00795 0.13009 -0.45200
O 	O 	0.46383 0.50795 0.86991 -0.45900
C 	C 	0.61509 0.34457 0.99798 0.38400
C 	C 	0.38496 0.84474 0.00227 0.37600
O 	O 	0.48263 0.33997 0.04474 -0.62500
O 	O 	0.51737 0.83997 0.95526 -0.62700
V 	V 	0.50322 0.06420 0.99170 1.80200
V 	V 	0.49678 0.56420 0.00830 1.80200
C 	C 	0.27578 0.99924 0.95243 0.12800
C 	C 	0.72451 0.49643 0.04985 0.13700
C 	C 	0.31589 0.85276 0.99902 -0.13300
C 	C 	0.68426 0.35214 0.00179 -0.13800
C 	C 	0.28709 0.70837 0.03898 0.04400
C 	C 	0.71308 0.20898 0.96115 0.04900
H 	H 	0.31556 0.59019 0.07432 0.04900
H 	H 	0.68459 0.09183 0.92505 0.04900
C 	C 	0.22214 0.72166 0.03947 -0.02500
C 	C 	0.77806 0.22255 0.96085 -0.02500
H 	H 	0.20282 0.61542 0.07634 0.09700
H 	H 	0.79731 0.11760 0.92322 0.09800
C 	C 	0.18351 0.87649 0.99783 -0.00500
C 	C 	0.81671 0.37635 0.00337 -0.00000
C 	C 	0.21121 0.00969 0.95133 -0.06300
C 	C 	0.78919 0.50682 0.05162 -0.07000
C 	C 	0.21434 0.21962 0.96021 0.35900
C 	C 	0.78651 0.71749 0.04662 0.36100
C 	C 	0.28460 0.20880 0.96011 -0.23100
C 	C 	0.71598 0.70625 0.04533 -0.23600
H 	H 	0.31879 0.25170 0.02771 0.13100
H 	H 	0.68232 0.75372 0.97806 0.13000
H 	H 	0.29463 0.27067 0.89682 0.10300
H 	H 	0.70546 0.76347 0.10914 0.10400
C 	C 	0.92704 0.88711 0.72353 -0.09000
C 	C 	0.07361 0.38138 0.27596 -0.09200
C 	C 	0.57185 0.85208 0.27629 -0.05900
C 	C 	0.42861 0.35337 0.72359 -0.06000
C 	C 	0.93684 0.93687 0.56756 -0.07100
C 	C 	0.06327 0.31853 0.43045 -0.07100
C 	C 	0.96497 0.92570 0.66375 0.03600
C 	C 	0.03515 0.34243 0.33490 0.03900
C 	C 	0.86076 0.85949 0.68720 0.01400
C 	C 	0.14033 0.39763 0.31239 0.01700
C 	C 	0.83054 0.87396 0.58972 -0.02100
C 	C 	0.17041 0.37226 0.40927 -0.02200
C 	C 	0.87016 0.91368 0.53028 0.04900
C 	C 	0.13029 0.33123 0.46782 0.05100
C 	C 	0.76246 0.85652 0.54976 0.02400
C 	C 	0.23869 0.38132 0.44949 0.02400
C 	C 	0.73530 0.87935 0.45105 -0.00100
C 	C 	0.26543 0.34969 0.54762 -0.00100
C 	C 	0.77701 0.92085 0.39546 -0.01800
C 	C 	0.22328 0.30512 0.60202 -0.01800
C 	C 	0.84295 0.93560 0.43433 -0.05300
C 	C 	0.15722 0.29817 0.56293 -0.05400
C 	C 	0.72059 0.81806 0.60517 -0.04200
C 	C 	0.28114 0.41996 0.39499 -0.04000
C 	C 	0.65439 0.81379 0.56691 -0.01300
C 	C 	0.34736 0.41703 0.43357 -0.01300
C 	C 	0.62630 0.84377 0.47109 0.00700
C 	C 	0.37489 0.37979 0.52892 0.00700
C 	C 	0.66712 0.86428 0.41125 0.00900
C 	C 	0.33364 0.35854 0.58803 0.00900
C 	C 	0.55820 0.84495 0.43290 0.07300
C 	C 	0.44290 0.37113 0.56749 0.07400
C 	C 	0.53207 0.84530 0.33538 -0.01100
C 	C 	0.46871 0.36013 0.66495 -0.01000
C 	C 	0.63831 0.86441 0.31341 -0.00700
C 	C 	0.36209 0.35089 0.68589 -0.00500
H 	H 	0.87287 0.96874 0.38884 0.06100
H 	H 	0.12681 0.26273 0.60736 0.06400
H 	H 	0.66614 0.86611 0.26357 0.04100
H 	H 	0.33399 0.34861 0.73541 0.04200
H 	H 	0.48037 0.84239 0.30507 0.06800
H 	H 	0.52038 0.35499 0.69544 0.06900
H 	H 	0.62569 0.77976 0.61366 0.07100
H 	H 	0.37661 0.45091 0.38755 0.07100
H 	H 	0.96709 0.96807 0.52232 0.05400
H 	H 	0.03265 0.28668 0.47508 0.05700
H 	H 	0.01620 0.94942 0.69174 0.03900
H 	H 	0.98352 0.32814 0.30668 0.04000
H 	H 	0.83426 0.83414 0.73752 0.05100
H 	H 	0.16710 0.42523 0.26262 0.04900
H 	H 	0.76015 0.94871 0.32143 0.05000
H 	H 	0.23999 0.26860 0.67507 0.05200
H 	H 	0.73726 0.79073 0.67925 0.05900
H 	H 	0.26491 0.45240 0.32138 0.05800
O 	O 	0.03608 0.23127 0.13012 -0.45200
O 	O 	0.96392 0.73127 0.86988 -0.45300
O 	O 	0.91130 0.55897 0.00675 -0.44300
O 	O 	0.08870 0.05897 0.99325 -0.44300
C 	C 	0.88479 0.39002 0.00153 0.33900
C 	C 	0.11531 0.88994 0.99904 0.33800
O 	O 	0.03245 0.56114 0.13804 -0.46600
O 	O 	0.96755 0.06114 0.86196 -0.46200
O 	O 	0.08587 0.72891 0.00213 -0.45000
O 	O 	0.91413 0.22891 0.99787 -0.44800
C 	C 	0.04499 0.39224 0.17489 0.37200
C 	C 	0.95525 0.89280 0.82496 0.36600
O 	O 	0.01732 0.39465 0.95527 -0.61200
O 	O 	0.98268 0.89465 0.04473 -0.61600
V 	V 	0.99678 0.67049 0.00830 1.80200
V 	V 	0.00322 0.17049 0.99170 1.80200
N 	N 	0.51492 0.85113 0.49115 -0.01200
O 	O 	0.45685 0.78447 0.45992 -0.09700
O 	O 	0.52838 0.95464 0.56643 -0.09400
N 	N 	0.48636 0.36751 0.50953 -0.01200
O 	O 	0.54464 0.43196 0.54198 -0.09400
O 	O 	0.47265 0.26833 0.43283 -0.09000
F 	F 	0.20605 0.28118 0.04449 -0.44000
F 	F 	0.79566 0.78616 0.96402 -0.44200
N 	N 	0.17258 0.31589 0.87847 -0.04600
O 	O 	0.16987 0.25957 0.79419 -0.11700
O 	O 	0.13495 0.45197 0.88943 -0.06600
N 	N 	0.82778 0.80778 0.13055 -0.04600
O 	O 	0.82889 0.74691 0.21369 -0.11500
O 	O 	0.86507 0.94713 0.12262 -0.07100
