data_crystal

_cell_length_a 18.76569
_cell_length_b 11.09065
_cell_length_c 18.83382
_cell_angle_alpha 89.95543
_cell_angle_beta  89.59452
_cell_angle_gamma 90.26658

_symmetry_space_group_name_	'P 1'
_symmetry_space_group_name_H-M	'P 1'

loop_
_symmetry_equiv_pos_as_xyz
  x,y,z

loop_
_atom_site_label
_atom_site_type_symbol
_atom_site_fract_x
_atom_site_fract_y
_atom_site_fract_z
_atom_site_charge
O 	O 	0.78751 0.04261 0.67041 -0.42700
O 	O 	0.21249 0.04261 0.32959 -0.43600
O 	O 	0.28751 0.54261 0.67041 -0.43200
O 	O 	0.71249 0.54261 0.32959 -0.43600
O 	O 	0.76567 0.29209 0.67509 -0.52300
O 	O 	0.23433 0.29209 0.32491 -0.52400
O 	O 	0.26567 0.79209 0.67509 -0.51700
O 	O 	0.73433 0.79209 0.32491 -0.52000
C 	C 	0.73291 0.38431 0.64963 0.41700
C 	C 	0.26760 0.38200 0.35117 0.42300
C 	C 	0.23265 0.88440 0.64954 0.40300
C 	C 	0.76718 0.88396 0.35039 0.40700
O 	O 	0.67022 0.40902 0.66856 -0.47200
O 	O 	0.32978 0.40902 0.33144 -0.47400
O 	O 	0.17022 0.90902 0.66856 -0.45300
O 	O 	0.82978 0.90902 0.33144 -0.45600
O 	O 	0.55658 0.25159 0.67498 -0.51500
O 	O 	0.44342 0.25159 0.32502 -0.51500
O 	O 	0.05658 0.75159 0.67498 -0.51100
O 	O 	0.94342 0.75159 0.32502 -0.51100
C 	C 	0.53272 0.15505 0.64601 0.40000
C 	C 	0.46771 0.15552 0.35362 0.39900
C 	C 	0.03323 0.65500 0.64568 0.40700
C 	C 	0.96815 0.65550 0.35337 0.39900
O 	O 	0.54589 0.04967 0.67003 -0.48100
O 	O 	0.45411 0.04967 0.32997 -0.48300
O 	O 	0.04589 0.54967 0.67003 -0.46200
O 	O 	0.95411 0.54967 0.32997 -0.45900
O 	O 	0.68134 0.95786 0.67650 -0.39000
O 	O 	0.31866 0.95786 0.32350 -0.41200
O 	O 	0.18134 0.45786 0.67650 -0.45500
O 	O 	0.81866 0.45786 0.32350 -0.46600
C 	C 	0.72767 0.01680 0.63889 0.20300
C 	C 	0.26956 0.00664 0.36123 0.23700
C 	C 	0.22748 0.51702 0.63909 0.31200
C 	C 	0.77209 0.51594 0.36105 0.31300
O 	O 	0.78738 0.04401 0.83094 -0.52900
O 	O 	0.21262 0.04401 0.16906 -0.52900
O 	O 	0.28738 0.54401 0.83094 -0.42900
O 	O 	0.71262 0.54401 0.16906 -0.47600
O 	O 	0.76554 0.29339 0.82391 -0.51100
O 	O 	0.23446 0.29339 0.17609 -0.51100
O 	O 	0.26554 0.79339 0.82391 -0.50700
O 	O 	0.73446 0.79339 0.17609 -0.51100
C 	C 	0.72819 0.37524 0.85458 0.42000
C 	C 	0.26849 0.38380 0.14945 0.41400
C 	C 	0.23141 0.88324 0.85047 0.39000
C 	C 	0.77189 0.87485 0.14519 0.43300
O 	O 	0.67009 0.41041 0.82909 -0.48000
O 	O 	0.32991 0.41041 0.17091 -0.47900
O 	O 	0.17009 0.91041 0.82909 -0.45300
O 	O 	0.82991 0.91041 0.17091 -0.47000
O 	O 	0.55645 0.25289 0.82379 -0.51900
O 	O 	0.44355 0.25289 0.17621 -0.51900
O 	O 	0.05645 0.75289 0.82379 -0.51500
O 	O 	0.94355 0.75289 0.17621 -0.50900
C 	C 	0.53384 0.15657 0.85409 0.41500
C 	C 	0.46685 0.15780 0.14633 0.40500
C 	C 	0.03302 0.65743 0.85359 0.40900
C 	C 	0.96653 0.65697 0.14610 0.40600
O 	O 	0.54575 0.05107 0.83056 -0.48000
O 	O 	0.45425 0.05107 0.16944 -0.48100
O 	O 	0.04575 0.55107 0.83056 -0.46400
O 	O 	0.95425 0.55107 0.16944 -0.45900
O 	O 	0.68121 0.95915 0.82532 -0.51100
O 	O 	0.31879 0.95915 0.17468 -0.52100
O 	O 	0.18121 0.45915 0.82532 -0.47800
O 	O 	0.81879 0.45915 0.17468 -0.52400
C 	C 	0.74228 0.96600 0.85237 0.48200
C 	C 	0.26088 0.97640 0.14291 0.50000
C 	C 	0.22639 0.52037 0.86186 0.31200
C 	C 	0.75782 0.46657 0.14743 0.41900
Cr	Cr	0.77195 0.16948 0.75010 1.53200
Cr	Cr	0.22805 0.16948 0.24990 1.53400
Cr	Cr	0.27195 0.66948 0.75010 1.53000
Cr	Cr	0.72805 0.66948 0.24990 1.53500
Cr	Cr	0.61493 0.32334 0.74917 1.54000
Cr	Cr	0.38507 0.32334 0.25083 1.54000
Cr	Cr	0.11493 0.82334 0.74917 1.54300
Cr	Cr	0.88507 0.82334 0.25083 1.54200
Cr	Cr	0.61659 0.01062 0.75061 1.52500
Cr	Cr	0.38341 0.01062 0.24939 1.52500
Cr	Cr	0.11659 0.51062 0.75061 1.53800
Cr	Cr	0.88341 0.51062 0.24939 1.54200
O 	O 	0.66782 0.16781 0.74996 -0.75800
O 	O 	0.33218 0.16781 0.25004 -0.75800
O 	O 	0.16782 0.66781 0.74996 -0.75900
O 	O 	0.83218 0.66781 0.25004 -0.75200
C 	C 	0.50087 0.16468 0.42333 -0.11600
C 	C 	0.50792 0.16245 0.57291 -0.11500
C 	C 	0.00281 0.66421 0.42243 -0.11700
C 	C 	0.01018 0.66233 0.57199 -0.12300
C 	C 	0.50186 0.27251 0.46235 0.05700
C 	C 	0.50991 0.27175 0.53594 0.05000
C 	C 	0.00638 0.77208 0.46118 0.05300
C 	C 	0.01438 0.77113 0.53468 0.05600
C 	C 	0.50616 0.05579 0.53359 -0.04400
C 	C 	0.51264 0.05751 0.46019 -0.04100
C 	C 	0.00803 0.55547 0.53282 0.00700
C 	C 	0.01426 0.55684 0.45935 0.00300
C 	C 	0.44864 0.37161 0.46514 -0.08700
C 	C 	0.45886 0.37328 0.54478 -0.07800
C 	C 	0.95689 0.87653 0.46362 -0.08600
C 	C 	0.96665 0.87706 0.54338 -0.08100
H 	H 	0.46792 0.45431 0.43796 0.09000
H 	H 	0.41004 0.34749 0.57515 0.06300
H 	H 	0.97972 0.95722 0.43696 0.09700
H 	H 	0.91695 0.85546 0.57345 0.07400
C 	C 	0.67663 0.92004 0.52413 -0.02300
C 	C 	0.32326 0.92144 0.47632 -0.01800
C 	C 	0.17885 0.41070 0.52687 0.00000
C 	C 	0.82569 0.42933 0.47715 -0.00800
C 	C 	0.68403 0.90258 0.45109 0.01400
C 	C 	0.31710 0.91246 0.55005 0.00700
C 	C 	0.18983 0.38310 0.45557 0.01000
C 	C 	0.81868 0.41369 0.55058 0.01200
H 	H 	0.64519 0.85095 0.42193 0.03600
H 	H 	0.35934 0.87317 0.58127 0.04300
H 	H 	0.15780 0.31432 0.43013 0.04900
H 	H 	0.85957 0.36849 0.58063 0.03500
C 	C 	0.74168 0.94693 0.41402 -0.07400
C 	C 	0.25569 0.94725 0.58458 -0.05400
C 	C 	0.24229 0.43936 0.41600 -0.12500
C 	C 	0.75825 0.44974 0.58624 -0.11200
C 	C 	0.78414 0.03592 0.44468 -0.00400
C 	C 	0.20529 0.01709 0.54824 -0.01600
C 	C 	0.28056 0.53531 0.44480 0.03900
C 	C 	0.71221 0.53110 0.55359 0.04000
C 	C 	0.78405 0.05018 0.51856 -0.07200
C 	C 	0.20218 0.00753 0.47464 -0.04800
C 	C 	0.28184 0.55027 0.51845 -0.01200
C 	C 	0.71120 0.53871 0.47958 -0.01400
C 	C 	0.72991 0.99164 0.56079 0.05500
C 	C 	0.26390 0.96910 0.43672 0.03000
C 	C 	0.22964 0.48956 0.56171 -0.05600
C 	C 	0.76922 0.48992 0.43896 -0.05400
C 	C 	0.56388 0.10893 0.97632 0.02700
C 	C 	0.55034 0.11233 0.04866 -0.00200
C 	C 	0.94664 0.62378 0.95103 0.02000
C 	C 	0.93264 0.62148 0.02340 0.01200
H 	H 	0.61100 0.06305 0.95719 0.03200
H 	H 	0.58593 0.06785 0.08500 0.04400
H 	H 	0.90793 0.58812 0.91424 0.05200
H 	H 	0.88240 0.58463 0.04221 0.04600
C 	C 	0.49001 0.17166 0.07346 -0.09500
C 	C 	0.51697 0.16434 0.92874 -0.11100
C 	C 	0.98338 0.66542 0.07147 -0.09200
C 	C 	0.01132 0.67056 0.92688 -0.09300
C 	C 	0.44535 0.23376 0.02620 -0.00200
C 	C 	0.45906 0.23057 0.95360 0.02800
C 	C 	0.04646 0.71842 0.04728 0.01200
C 	C 	0.06055 0.72059 0.97474 0.02200
C 	C 	0.81588 0.93941 0.95505 -0.00300
C 	C 	0.20004 0.99250 0.03060 0.16900
C 	C 	0.28290 0.54704 0.97630 -0.00600
C 	C 	0.68440 0.43891 0.04470 -0.00400
C 	C 	0.81904 0.94488 0.02787 0.08600
C 	C 	0.20019 0.00058 0.95767 -0.13400
C 	C 	0.29211 0.52488 0.04780 0.01800
C 	C 	0.68090 0.44439 0.97188 0.02700
C 	C 	0.75999 0.90164 0.06949 -0.12100
C 	C 	0.25274 0.93725 0.91853 -0.00900
C 	C 	0.24422 0.44589 0.08411 -0.10600
C 	C 	0.74021 0.40359 0.93003 -0.11100
C 	C 	0.69834 0.85506 0.03455 0.02200
C 	C 	0.31538 0.89856 0.95266 -0.01300
C 	C 	0.18033 0.41025 0.05030 0.01700
C 	C 	0.80261 0.36068 0.96458 0.02200
C 	C 	0.69615 0.85513 0.95964 0.03000
C 	C 	0.31880 0.90325 0.02764 0.05900
C 	C 	0.17271 0.43047 0.97647 0.01100
C 	C 	0.80490 0.35966 0.03947 0.00800
C 	C 	0.75329 0.90819 0.92116 -0.12100
C 	C 	0.25817 0.94551 0.06695 -0.18500
C 	C 	0.22744 0.49434 0.93871 -0.07100
C 	C 	0.74725 0.40959 0.07833 -0.11400
H 	H 	0.50041 0.97042 0.56016 0.08900
H 	H 	0.51716 0.97269 0.43237 0.08700
H 	H 	0.00155 0.47033 0.55949 0.04900
H 	H 	0.01798 0.47181 0.43164 0.05200
H 	H 	0.86054 0.97436 0.92426 0.07600
H 	H 	0.15615 0.03341 0.05935 -0.00900
H 	H 	0.32060 0.60587 0.94925 0.05600
H 	H 	0.63961 0.47190 0.07574 0.05800
C 	C 	0.88515 0.00123 0.05661 -0.02900
H 	H 	0.88300 0.05971 0.10248 0.04400
O 	O 	0.94297 0.98450 0.02813 -0.10500
C 	C 	0.14515 0.07741 0.92383 0.14600
H 	H 	0.15512 0.11654 0.87184 0.00500
O 	O 	0.08841 0.09792 0.95353 -0.20400
C 	C 	0.35390 0.58437 0.08195 0.09800
H 	H 	0.34970 0.61627 0.13626 0.02300
O 	O 	0.41031 0.59708 0.04994 -0.17900
C 	C 	0.61421 0.49841 0.94348 0.09700
H 	H 	0.61552 0.55632 0.89728 0.03100
O 	O 	0.55678 0.48079 0.97276 -0.17200
C 	C 	0.63665 0.80328 0.07469 0.11100
H 	H 	0.61323 0.71820 0.05826 0.03400
O 	O 	0.61041 0.85651 0.12514 -0.17500
C 	C 	0.37718 0.85425 0.91013 0.12300
H 	H 	0.40968 0.78075 0.92950 0.03800
O 	O 	0.39324 0.90187 0.85371 -0.17500
C 	C 	0.12207 0.34998 0.09121 0.11100
H 	H 	0.09318 0.27437 0.06867 0.03600
O 	O 	0.10443 0.38730 0.14971 -0.19000
C 	C 	0.86515 0.31474 0.92377 0.11100
H 	H 	0.89090 0.23167 0.93968 0.02800
O 	O 	0.88933 0.37067 0.87313 -0.19100
C 	C 	0.63462 0.80197 0.92065 0.09300
H 	H 	0.64393 0.75770 0.87009 0.02200
O 	O 	0.57342 0.81165 0.94227 -0.15900
C 	C 	0.38624 0.86816 0.06342 0.08800
H 	H 	0.38510 0.81716 0.11235 0.03100
O 	O 	0.44423 0.89764 0.03918 -0.14100
C 	C 	0.10803 0.38340 0.94046 0.10200
H 	H 	0.11245 0.32733 0.89368 0.02700
O 	O 	0.04867 0.40488 0.96390 -0.15600
C 	C 	0.86693 0.30811 0.07797 0.09600
H 	H 	0.85802 0.26141 0.12790 0.01100
O 	O 	0.92804 0.32196 0.05676 -0.17500
H 	H 	0.90172 0.85211 0.44802 0.08200
H 	H 	0.99646 0.95692 0.56307 0.08200
H 	H 	0.39437 0.34112 0.45001 0.07200
H 	H 	0.48634 0.45561 0.56438 0.07200
C 	C 	0.61309 0.85280 0.55265 0.13200
H 	H 	0.57805 0.80708 0.51554 0.01400
O 	O 	0.59652 0.84370 0.61484 -0.19700
C 	C 	0.39141 0.86913 0.44904 0.13500
H 	H 	0.43222 0.84468 0.48679 0.02100
O 	O 	0.40362 0.84465 0.38736 -0.19000
C 	C 	0.11317 0.34931 0.55518 0.12000
H 	H 	0.07669 0.30827 0.51767 0.02100
O 	O 	0.09630 0.34041 0.61732 -0.20100
C 	C 	0.89207 0.37129 0.44927 0.12200
H 	H 	0.93215 0.34239 0.48675 0.02000
O 	O 	0.90380 0.34733 0.38745 -0.19700
C 	C 	0.82315 0.12069 0.39754 0.11200
H 	H 	0.79404 0.19158 0.37083 0.02400
O 	O 	0.88667 0.10781 0.38551 -0.19200
C 	C 	0.15429 0.09324 0.58833 0.11300
H 	H 	0.09951 0.10296 0.57193 0.02300
O 	O 	0.17365 0.14377 0.64257 -0.18800
C 	C 	0.31618 0.62287 0.39683 0.10300
H 	H 	0.28563 0.69630 0.37447 0.03300
O 	O 	0.37886 0.61111 0.38060 -0.16900
C 	C 	0.66520 0.60780 0.59799 0.10100
H 	H 	0.60951 0.61871 0.58518 0.03600
O 	O 	0.68854 0.65578 0.65144 -0.17200
C 	C 	0.84241 0.12392 0.54967 0.13500
H 	H 	0.83300 0.18089 0.59416 0.00400
O 	O 	0.90309 0.11990 0.52633 -0.20800
C 	C 	0.13185 0.01943 0.43924 0.06500
H 	H 	0.11378 0.94783 0.40439 0.06300
O 	O 	0.09559 0.10979 0.44542 -0.19700
C 	C 	0.34023 0.62555 0.54818 0.11400
H 	H 	0.33169 0.68192 0.59312 0.01300
O 	O 	0.40026 0.62311 0.52305 -0.18700
C 	C 	0.64673 0.59224 0.44704 0.12000
H 	H 	0.65097 0.66200 0.40766 0.01200
O 	O 	0.58748 0.55511 0.46299 -0.19700
H 	H 	0.39815 0.27992 0.04522 0.04800
H 	H 	0.42386 0.27628 0.91713 0.04000
H 	H 	0.08512 0.75440 0.08419 0.04400
H 	H 	0.11113 0.75650 0.95607 0.04400
