data_crystal

_cell_length_a 7.89511
_cell_length_b 8.49065
_cell_length_c 13.75809
_cell_angle_alpha 94.20491
_cell_angle_beta  93.19307
_cell_angle_gamma 93.89262

_symmetry_space_group_name_	'P 1'
_symmetry_space_group_name_H-M	'P 1'

loop_
_symmetry_equiv_pos_as_xyz
  x,y,z

loop_
_atom_site_label
_atom_site_type_symbol
_atom_site_fract_x
_atom_site_fract_y
_atom_site_fract_z
_atom_site_charge
C 	C 	0.04816 0.79522 0.50981 0.33300
C 	C 	0.93668 0.48681 0.31808 0.35800
C 	C 	0.09250 0.51893 0.78727 -0.09600
C 	C 	0.90131 0.45680 0.21364 -0.10000
C 	C 	0.03827 0.62793 0.94830 -0.06400
C 	C 	0.92370 0.29210 0.06516 -0.07300
C 	C 	0.98810 0.59980 0.84965 0.02700
C 	C 	0.98873 0.34732 0.15855 0.02400
C 	C 	0.23762 0.45497 0.82434 0.01100
C 	C 	0.75562 0.51602 0.17417 0.01300
C 	C 	0.29121 0.48162 0.92276 -0.02000
C 	C 	0.95966 0.20793 0.51492 0.37100
C 	C 	0.67756 0.44938 0.08593 -0.02300
C 	C 	0.19239 0.57491 0.98437 0.04300
C 	C 	0.76671 0.33967 0.02932 0.04400
C 	C 	0.44699 0.42845 0.95924 0.00600
C 	C 	0.51250 0.48686 0.05386 0.01200
C 	C 	0.26426 0.02620 0.54905 0.05200
C 	C 	0.79430 0.00220 0.60023 0.12600
C 	C 	0.48572 0.37955 0.38642 0.12800
C 	C 	0.51741 0.60890 0.61740 0.13000
C 	C 	0.40869 0.57655 0.11442 -0.03000
C 	C 	0.53937 0.31931 0.90425 -0.03000
C 	C 	0.25062 0.61776 0.08032 -0.04800
C 	C 	0.69622 0.27576 0.93909 -0.05700
C 	C 	0.08265 0.96107 0.53785 0.03500
C 	C 	0.94919 0.05202 0.54978 -0.14200
C 	C 	0.06288 0.51098 0.68198 0.36200
H 	H 	0.10269 0.30044 0.18890 0.04000
H 	H 	0.49104 0.26004 0.83536 0.04000
H 	H 	0.30228 0.12296 0.60364 0.04000
H 	H 	0.67588 0.05617 0.58564 0.03500
H 	H 	0.45522 0.42943 0.31788 0.01500
H 	H 	0.55867 0.55485 0.68288 0.01600
H 	H 	0.87343 0.64816 0.82145 0.04900
H 	H 	0.17542 0.68698 0.12875 0.05900
H 	H 	0.76204 0.19065 0.89539 0.04800
H 	H 	0.70169 0.60956 0.21679 0.04900
H 	H 	0.31344 0.39415 0.77307 0.04300
H 	H 	0.96028 0.69619 0.99553 0.05700
H 	H 	0.99201 0.20733 0.02280 0.04800
H 	H 	0.44356 0.61400 0.18971 0.05100
N 	N 	0.44086 0.45649 0.47479 -0.19800
N 	N 	0.55914 0.54351 0.52521 -0.19500
O 	O 	0.89157 0.73893 0.50619 -0.41200
O 	O 	0.80101 0.90804 0.66310 -0.15300
O 	O 	0.54714 0.25159 0.38603 -0.18200
O 	O 	0.44599 0.73164 0.62460 -0.16500
O 	O 	0.10843 0.26107 0.49381 -0.44700
O 	O 	0.17465 0.71105 0.49003 -0.40400
O 	O 	0.82535 0.28895 0.50997 -0.43200
O 	O 	0.90985 0.52190 0.64494 -0.44900
O 	O 	0.09015 0.47810 0.35506 -0.44400
O 	O 	0.19293 0.49402 0.62878 -0.44300
O 	O 	0.80707 0.50598 0.37122 -0.43600
O 	O 	0.37055 0.97584 0.49601 -0.10000
Zn	Zn	0.81099 0.51862 0.51079 1.23900
Zn	Zn	0.18901 0.48138 0.48921 1.23900
