data_crystal

_cell_length_a 6.94305
_cell_length_b 13.63898
_cell_length_c 20.47140
_cell_angle_alpha 102.16882
_cell_angle_beta  90.34008
_cell_angle_gamma 90.87100

_symmetry_space_group_name_	'P 1'
_symmetry_space_group_name_H-M	'P 1'

loop_
_symmetry_equiv_pos_as_xyz
  x,y,z

loop_
_atom_site_label
_atom_site_type_symbol
_atom_site_fract_x
_atom_site_fract_y
_atom_site_fract_z
_atom_site_charge
O 	O 	0.50686 0.59939 0.44924 -0.47600
O 	O 	0.18022 0.59460 0.58678 -0.49300
O 	O 	0.00450 0.40061 0.55076 -0.49100
C 	C 	0.34967 0.61276 0.61447 0.39600
O 	O 	0.17749 0.61129 0.45197 -0.48600
O 	O 	0.00175 0.41742 0.41499 -0.48800
C 	C 	0.34690 0.63748 0.43483 0.38700
O 	O 	0.50961 0.58258 0.58501 -0.48000
O 	O 	0.33742 0.43637 0.48802 -0.63200
V 	V 	0.06468 0.51180 0.50222 1.80500
O 	O 	0.67171 0.40540 0.41322 -0.48400
C 	C 	0.83897 0.38378 0.38670 0.41500
O 	O 	0.67444 0.38871 0.54803 -0.48600
C 	C 	0.84266 0.36177 0.56426 0.45400
V 	V 	0.56401 0.48820 0.49778 1.80900
O 	O 	0.84114 0.56363 0.51198 -0.63200
C 	C 	0.84871 0.10816 0.60799 -0.17000
H 	H 	0.85405 0.98144 0.68766 0.10000
H 	H 	0.84653 0.02990 0.58257 0.10500
C 	C 	0.84932 0.28281 0.60232 -0.18800
C 	C 	0.86556 0.31023 0.92457 0.00200
C 	C 	0.86317 0.38612 0.88900 -0.00400
C 	C 	0.85946 0.36249 0.81945 -0.05300
C 	C 	0.85840 0.26148 0.78332 0.05400
C 	C 	0.86029 0.18263 0.81999 -0.02200
C 	C 	0.85556 0.23691 0.71178 -0.07800
C 	C 	0.85332 0.13484 0.67810 0.13400
C 	C 	0.85537 0.05930 0.71410 -0.14500
C 	C 	0.85915 0.08094 0.78347 0.18900
C 	C 	0.85448 0.31018 0.67206 0.07600
C 	C 	0.84593 0.18158 0.57005 0.25800
C 	C 	0.86391 0.20962 0.89140 -0.06400
H 	H 	0.85637 0.38945 0.69318 0.02600
H 	H 	0.86914 0.32957 0.97880 0.04900
H 	H 	0.85752 0.42535 0.79533 0.05900
C 	C 	0.00488 0.28710 0.28754 -0.04900
C 	C 	0.84046 0.31413 0.32059 -0.11700
H 	H 	0.14048 0.31703 0.31079 0.08700
H 	H 	0.70249 0.28403 0.30006 0.09400
C 	C 	0.01932 0.21581 0.22162 0.21400
C 	C 	0.86544 0.18409 0.18066 -0.22100
H 	H 	0.72288 0.21019 0.19599 0.12600
C 	C 	0.20895 0.77582 0.78689 0.03700
C 	C 	0.36181 0.82861 0.81675 -0.16300
H 	H 	0.07384 0.77794 0.81356 0.06300
H 	H 	0.49347 0.83190 0.78907 0.11600
C 	C 	0.21135 0.71931 0.71606 0.01100
C 	C 	0.36387 0.66892 0.68488 -0.13600
H 	H 	0.07572 0.71677 0.68900 0.05400
C 	C 	0.41896 0.88604 0.38652 -0.06500
H 	H 	0.41481 0.83590 0.47904 0.03800
H 	H 	0.45506 0.00998 0.30341 0.06700
H 	H 	0.44957 0.96315 0.41128 0.07700
C 	C 	0.35921 0.71422 0.39465 -0.10300
C 	C 	0.31544 0.68629 0.07185 0.03400
C 	C 	0.29453 0.61082 0.10755 -0.04400
C 	C 	0.30994 0.63277 0.17705 -0.01900
C 	C 	0.34774 0.73201 0.21297 -0.00600
C 	C 	0.37120 0.80895 0.17585 0.06900
C 	C 	0.36255 0.75753 0.28433 -0.01000
C 	C 	0.40183 0.85893 0.31662 0.04500
C 	C 	0.42488 0.93263 0.27907 -0.02900
C 	C 	0.40991 0.90822 0.20990 -0.04600
C 	C 	0.34063 0.68609 0.32504 0.01600
C 	C 	0.39874 0.81399 0.42523 0.04100
C 	C 	0.35393 0.78507 0.10517 -0.11300
H 	H 	0.31148 0.60782 0.30447 0.03700
H 	H 	0.30070 0.66770 0.01789 0.04000
H 	H 	0.29112 0.57019 0.20096 0.04400
H 	H 	0.26488 0.53451 0.08115 0.05200
H 	H 	0.42958 0.96816 0.18322 0.08000
O 	O 	0.20323 0.91731 0.91502 -0.46900
O 	O 	0.53550 0.88869 0.04804 -0.47700
O 	O 	0.71108 0.08261 0.08500 -0.48500
C 	C 	0.36616 0.86254 0.06523 0.39200
O 	O 	0.53263 0.90537 0.91323 -0.47400
O 	O 	0.70819 0.09941 0.94923 -0.45800
C 	C 	0.36378 0.88638 0.88613 0.41300
O 	O 	0.20612 0.90051 0.05079 -0.47000
O 	O 	0.37536 0.06357 0.01199 -0.63100
V 	V 	0.64817 0.98820 0.99778 1.81000
O 	O 	0.03824 0.11139 0.95194 -0.47600
C 	C 	0.87019 0.13628 0.93398 0.40600
O 	O 	0.04112 0.09471 0.08675 -0.48400
C 	C 	0.87415 0.11518 0.11392 0.44900
V 	V 	0.14881 0.01193 0.00218 1.80700
O 	O 	0.87175 0.93643 0.98801 -0.62000
Cl	Cl	0.83813 0.14464 0.48224 -0.32700
Cl	Cl	0.25645 0.17624 0.20045 -0.33600
C 	C 	0.54023 0.65750 0.72075 0.14400
N 	N 	0.68111 0.64789 0.74911 -0.12100
C 	C 	0.86537 0.48949 0.92426 0.08300
N 	N 	0.86719 0.57246 0.95256 -0.10400
Cl	Cl	0.86195 0.97313 0.81826 -0.33900
