data_crystal

_cell_length_a 10.98030
_cell_length_b 11.05935
_cell_length_c 18.79355
_cell_angle_alpha 91.00674
_cell_angle_beta  89.65938
_cell_angle_gamma 59.91546

_symmetry_space_group_name_	'P 1'
_symmetry_space_group_name_H-M	'P 1'

loop_
_symmetry_equiv_pos_as_xyz
  x,y,z

loop_
_atom_site_label
_atom_site_type_symbol
_atom_site_fract_x
_atom_site_fract_y
_atom_site_fract_z
_atom_site_charge
O 	O 	0.50743 0.25557 0.58142 -0.45200
O 	O 	0.28019 0.52739 0.57891 -0.51400
C 	C 	0.24621 0.64286 0.61161 0.42400
O 	O 	0.26031 0.73974 0.58458 -0.46700
O 	O 	0.53225 0.69515 0.57383 -0.50900
C 	C 	0.65294 0.62550 0.59981 0.45600
O 	O 	0.74493 0.50343 0.57638 -0.50000
O 	O 	0.69925 0.27639 0.57195 -0.50700
C 	C 	0.62829 0.22956 0.60292 0.41100
O 	O 	0.49902 0.25640 0.41985 -0.46600
O 	O 	0.27240 0.52816 0.42914 -0.51200
C 	C 	0.22096 0.64861 0.40219 0.41200
O 	O 	0.25191 0.74057 0.42302 -0.48800
O 	O 	0.52446 0.69592 0.42406 -0.54100
C 	C 	0.64060 0.61906 0.39073 0.40600
O 	O 	0.73653 0.50426 0.41481 -0.49700
O 	O 	0.69146 0.27716 0.42218 -0.51800
C 	C 	0.61875 0.22703 0.39551 0.39100
Cr	Cr	0.39293 0.39790 0.50223 1.53800
Cr	Cr	0.39824 0.70860 0.50126 1.53100
Cr	Cr	0.70880 0.39347 0.49646 1.53000
O 	O 	0.49999 0.49999 0.49998 -0.73200
C 	C 	0.60206 0.82760 0.77763 -0.12500
H 	H 	0.64393 0.90043 0.77485 0.00900
H 	H 	0.50726 0.88058 0.81286 0.04800
C 	C 	0.55606 0.80938 0.70219 0.31400
H 	H 	0.54998 0.89219 0.66706 -0.05900
H 	H 	0.90760 0.69746 0.77005 -0.03700
H 	H 	0.79552 0.76487 0.66368 -0.00200
C 	C 	0.85891 0.63279 0.75636 0.08800
C 	C 	0.66990 0.57463 0.80174 0.27700
C 	C 	0.72226 0.68285 0.80714 -0.12000
C 	C 	0.66787 0.66256 0.67351 -0.18800
C 	C 	0.80880 0.66197 0.67885 -0.05700
C 	C 	0.65534 0.55255 0.72079 0.22500
H 	H 	0.73892 0.44600 0.70421 0.03300
H 	H 	0.88789 0.58907 0.63863 0.01300
C 	C 	0.78719 0.16984 0.70744 -0.02000
H 	H 	0.86519 0.17516 0.67402 0.04000
C 	C 	0.80698 0.15731 0.78187 0.09800
C 	C 	0.69507 0.15847 0.82406 -0.10900
C 	C 	0.57159 0.18303 0.78975 0.02300
H 	H 	0.48244 0.19182 0.81858 0.04300
C 	C 	0.56319 0.18084 0.71751 0.00900
H 	H 	0.46979 0.18776 0.69470 0.05800
C 	C 	0.66670 0.18081 0.67549 -0.07200
C 	C 	0.26592 0.53229 0.72778 0.01900
H 	H 	0.31597 0.43146 0.70120 0.04100
C 	C 	0.25192 0.54186 0.80202 0.00900
H 	H 	0.29027 0.44908 0.83317 0.02700
C 	C 	0.18989 0.67284 0.83556 -0.10800
C 	C 	0.17508 0.78529 0.79634 0.01300
H 	H 	0.15909 0.87811 0.82279 -0.00100
C 	C 	0.17805 0.77983 0.72319 0.02700
H 	H 	0.15590 0.87266 0.69459 0.03300
C 	C 	0.21785 0.65356 0.68780 -0.08700
C 	C 	0.72910 0.52704 0.27045 0.00400
H 	H 	0.79383 0.42402 0.29155 0.04100
C 	C 	0.72641 0.54072 0.19763 -0.00300
H 	H 	0.79328 0.44889 0.16495 0.06000
C 	C 	0.64995 0.67285 0.16778 -0.12300
C 	C 	0.56341 0.78949 0.21180 -0.01000
H 	H 	0.50381 0.89269 0.18992 -0.00500
C 	C 	0.56172 0.77460 0.28545 -0.00700
H 	H 	0.49523 0.86512 0.31903 -0.00100
C 	C 	0.64890 0.64367 0.31524 -0.12700
C 	C 	0.55005 0.15060 0.28870 -0.05000
H 	H 	0.46828 0.14331 0.31753 0.08200
C 	C 	0.54753 0.14824 0.21583 0.09700
H 	H 	0.46840 0.13184 0.19057 0.04700
C 	C 	0.65067 0.15821 0.17658 -0.25300
C 	C 	0.75299 0.17737 0.21139 0.40800
C 	C 	0.75418 0.18127 0.28476 -0.15900
H 	H 	0.83253 0.19747 0.31102 0.09800
C 	C 	0.64989 0.17269 0.32353 -0.02100
C 	C 	0.08768 0.80079 0.30599 0.01500
H 	H 	0.06189 0.89294 0.33835 0.02300
C 	C 	0.06749 0.81405 0.23392 -0.00500
H 	H 	0.02092 0.91784 0.21251 0.05200
C 	C 	0.10935 0.69507 0.19001 -0.09800
C 	C 	0.16027 0.56380 0.21948 0.00800
H 	H 	0.18770 0.47225 0.18632 0.04900
C 	C 	0.18246 0.55002 0.29209 0.01600
H 	H 	0.23261 0.44606 0.31367 0.04800
C 	C 	0.15304 0.66799 0.33464 -0.11300
O 	O 	0.08949 0.82561 0.93061 -0.49400
O 	O 	0.81837 0.05454 0.92988 -0.46800
C 	C 	0.70414 0.10221 0.89604 0.39900
O 	O 	0.60587 0.07731 0.91553 -0.41100
O 	O 	0.64644 0.80670 0.91757 -0.52600
C 	C 	0.75229 0.70543 0.88226 0.33800
O 	O 	0.83720 0.59329 0.91525 -0.43900
O 	O 	0.06533 0.63537 0.93159 -0.46900
C 	C 	0.12067 0.70571 0.90614 0.39200
O 	O 	0.06830 0.82879 0.09186 -0.46600
O 	O 	0.79873 0.05748 0.07937 -0.46500
C 	C 	0.67401 0.10814 0.10380 0.47800
O 	O 	0.58468 0.08048 0.07679 -0.45000
O 	O 	0.62679 0.80964 0.06705 -0.56600
C 	C 	0.69374 0.69080 0.09708 0.40500
O 	O 	0.81601 0.59646 0.07650 -0.51000
O 	O 	0.04568 0.63831 0.08107 -0.47400
C 	C 	0.08245 0.71592 0.11509 0.40000
Cr	Cr	0.93762 0.93854 0.00764 1.43100
Cr	Cr	0.62515 0.93745 0.99452 1.49000
Cr	Cr	0.93799 0.62508 0.00119 1.48400
O 	O 	0.83359 0.83369 0.00112 -0.83900
C 	C 	0.98024 0.47732 0.75101 -0.34700
C 	C 	0.06076 0.40476 0.81648 0.25900
C 	C 	0.19819 0.27221 0.79429 -0.27100
H 	H 	0.17688 0.19297 0.76986 0.12800
H 	H 	0.25727 0.29320 0.75385 0.09400
H 	H 	0.26692 0.22956 0.84083 0.09300
H 	H 	0.08160 0.47455 0.84841 -0.00300
H 	H 	0.99796 0.37766 0.85077 -0.04600
H 	H 	0.94683 0.40967 0.72401 0.10200
H 	H 	0.05901 0.47664 0.71336 0.15800
C 	C 	0.94542 0.15207 0.80456 -0.15600
C 	C 	0.98557 0.14094 0.88358 -0.20500
C 	C 	0.12923 0.11799 0.90603 -0.04500
H 	H 	0.21171 0.05684 0.86510 0.07900
H 	H 	0.12413 0.21657 0.92280 0.05700
H 	H 	0.16305 0.05480 0.95503 0.06600
H 	H 	0.90002 0.22414 0.91722 0.08800
H 	H 	0.00613 0.03908 0.89455 0.17200
H 	H 	0.03247 0.06771 0.77325 0.15400
H 	H 	0.94417 0.24342 0.78318 0.08100
F 	F 	0.85410 0.18799 0.17476 -0.48500
F 	F 	0.42310 0.82452 0.70546 -0.46000
F 	F 	0.77192 0.44880 0.82606 -0.46100
C 	C 	0.53565 0.61008 0.84796 -0.11900
C 	C 	0.56762 0.56085 0.92601 -0.01000
C 	C 	0.43679 0.58686 0.96727 -0.13200
H 	H 	0.35698 0.69984 0.96765 0.05100
H 	H 	0.39383 0.52376 0.94351 0.06100
H 	H 	0.46475 0.55459 0.02321 0.04000
H 	H 	0.64405 0.44682 0.92716 0.06900
H 	H 	0.61230 0.61560 0.95588 0.05500
H 	H 	0.45547 0.72248 0.84710 0.07200
H 	H 	0.48690 0.55200 0.82510 0.10900
F 	F 	0.53075 0.55434 0.70637 -0.41900
