data_crystal

_cell_length_a 6.95127
_cell_length_b 13.66732
_cell_length_c 20.44258
_cell_angle_alpha 102.26575
_cell_angle_beta  89.27926
_cell_angle_gamma 90.82142

_symmetry_space_group_name_	'P 1'
_symmetry_space_group_name_H-M	'P 1'

loop_
_symmetry_equiv_pos_as_xyz
  x,y,z

loop_
_atom_site_label
_atom_site_type_symbol
_atom_site_fract_x
_atom_site_fract_y
_atom_site_fract_z
_atom_site_charge
O 	O 	0.50686 0.59939 0.44924 -0.48800
O 	O 	0.18022 0.59460 0.58678 -0.46000
O 	O 	0.00450 0.40061 0.55076 -0.45100
C 	C 	0.34807 0.61607 0.61353 0.46800
O 	O 	0.17749 0.61129 0.45197 -0.48400
O 	O 	0.00175 0.41742 0.41499 -0.46800
C 	C 	0.34815 0.63773 0.43537 0.42300
O 	O 	0.50961 0.58258 0.58501 -0.49200
O 	O 	0.33742 0.43637 0.48802 -0.63900
V 	V 	0.06468 0.51180 0.50222 1.81200
O 	O 	0.67171 0.40540 0.41322 -0.50900
C 	C 	0.84071 0.38535 0.38605 0.41700
O 	O 	0.67444 0.38871 0.54803 -0.47400
C 	C 	0.84170 0.36254 0.56513 0.36500
V 	V 	0.56401 0.48820 0.49778 1.80700
O 	O 	0.84114 0.56363 0.51198 -0.63700
C 	C 	0.81769 0.11213 0.61284 -0.07000
H 	H 	0.80888 0.16251 0.52045 0.03100
H 	H 	0.80983 0.98691 0.69560 0.05700
H 	H 	0.80110 0.03421 0.58787 0.05300
C 	C 	0.84508 0.28561 0.60513 -0.09500
C 	C 	0.88673 0.31450 0.92823 0.02500
C 	C 	0.89200 0.39053 0.89268 -0.04600
C 	C 	0.88032 0.36813 0.82308 -0.02400
C 	C 	0.86250 0.26783 0.78688 -0.00600
C 	C 	0.85483 0.19018 0.82386 0.05900
C 	C 	0.85222 0.24201 0.71540 -0.01200
C 	C 	0.83183 0.13957 0.68283 0.04100
C 	C 	0.82476 0.06511 0.72019 -0.04700
C 	C 	0.83662 0.08976 0.78948 -0.04500
C 	C 	0.86058 0.31412 0.67482 0.00900
C 	C 	0.82270 0.18481 0.57432 0.03100
C 	C 	0.86756 0.21462 0.89468 -0.10900
H 	H 	0.87625 0.39311 0.69558 0.04400
H 	H 	0.89812 0.33359 0.98229 0.03000
H 	H 	0.88577 0.43126 0.79931 0.04500
H 	H 	0.90632 0.46769 0.91928 0.04400
H 	H 	0.83086 0.02904 0.81594 0.05300
C 	C 	0.00347 0.27711 0.28731 0.20000
C 	C 	0.84744 0.32780 0.31567 -0.25000
H 	H 	0.72338 0.33299 0.28504 0.09900
C 	C 	0.00829 0.22548 0.21499 -0.02700
C 	C 	0.85531 0.17987 0.18165 -0.15800
H 	H 	0.14611 0.21824 0.18960 0.05200
H 	H 	0.71556 0.18479 0.20623 0.08100
C 	C 	0.20552 0.79150 0.78329 -0.10000
C 	C 	0.36501 0.81566 0.82005 -0.10700
H 	H 	0.06890 0.82259 0.80351 0.10300
H 	H 	0.50299 0.78511 0.80158 0.07700
C 	C 	0.19982 0.72267 0.71604 0.39800
C 	C 	0.35776 0.68469 0.68031 -0.30300
H 	H 	0.50074 0.70392 0.69966 0.14100
C 	C 	0.52311 0.86879 0.38333 -0.12300
H 	H 	0.53074 0.81347 0.47345 0.02600
H 	H 	0.59118 0.98842 0.30101 0.08000
H 	H 	0.60339 0.93607 0.40535 0.06600
C 	C 	0.36828 0.71524 0.39645 -0.18100
C 	C 	0.28573 0.69281 0.07588 0.00200
C 	C 	0.26429 0.61781 0.11167 -0.02100
C 	C 	0.29733 0.63812 0.18018 -0.05800
C 	C 	0.34871 0.73555 0.21535 0.06600
C 	C 	0.38909 0.81042 0.17747 -0.02900
C 	C 	0.37207 0.75919 0.28646 -0.11400
C 	C 	0.47099 0.84909 0.31584 0.11600
C 	C 	0.51785 0.91930 0.27799 -0.14400
C 	C 	0.46690 0.90420 0.21092 0.15000
C 	C 	0.30242 0.69761 0.33019 0.19300
C 	C 	0.47912 0.80017 0.42247 0.08200
C 	C 	0.35055 0.78826 0.10739 -0.06700
H 	H 	0.25574 0.67569 0.02272 0.04400
H 	H 	0.29030 0.57478 0.20373 0.06400
H 	H 	0.22245 0.54298 0.08606 0.04200
O 	O 	0.20323 0.91731 0.91502 -0.47600
O 	O 	0.53550 0.88869 0.04804 -0.47100
O 	O 	0.71108 0.08261 0.08500 -0.48300
C 	C 	0.36539 0.86346 0.06590 0.38000
O 	O 	0.53263 0.90537 0.91323 -0.49100
O 	O 	0.70819 0.09941 0.94923 -0.47300
C 	C 	0.36508 0.88422 0.88656 0.38500
O 	O 	0.20612 0.90051 0.05079 -0.46300
O 	O 	0.37536 0.06357 0.01199 -0.64700
V 	V 	0.64817 0.98820 0.99778 1.80700
O 	O 	0.03824 0.11139 0.95194 -0.46300
C 	C 	0.87101 0.13715 0.93458 0.36400
O 	O 	0.04112 0.09471 0.08675 -0.48900
C 	C 	0.87131 0.11612 0.11340 0.38200
V 	V 	0.14881 0.01193 0.00218 1.80300
O 	O 	0.87175 0.93643 0.98801 -0.65100
F 	F 	0.02133 0.69918 0.69035 -0.44600
O 	O 	0.17234 0.61994 0.30974 -0.19900
C 	C 	0.98560 0.66007 0.31373 -0.04000
H 	H 	0.96879 0.71118 0.27849 0.04300
H 	H 	0.94903 0.69973 0.36572 0.05500
H 	H 	0.88055 0.59755 0.29928 0.05000
O 	O 	0.51109 0.97910 0.17730 -0.18500
C 	C 	0.37589 0.05603 0.19591 -0.04500
H 	H 	0.39799 0.09725 0.24835 0.04800
H 	H 	0.22526 0.02693 0.18921 0.05600
H 	H 	0.39743 0.10987 0.16286 0.05800
O 	O 	0.15352 0.26189 0.32775 -0.19300
C 	C 	0.31827 0.31412 0.31267 -0.03000
H 	H 	0.37030 0.28715 0.26052 0.03300
H 	H 	0.43393 0.29906 0.34551 0.06400
H 	H 	0.29393 0.39632 0.32299 0.05900
