data_crystal

_cell_length_a 16.58071
_cell_length_b 7.25535
_cell_length_c 15.19819
_cell_angle_alpha 89.99893
_cell_angle_beta  94.80240
_cell_angle_gamma 89.99916

_symmetry_space_group_name_	'P 1'
_symmetry_space_group_name_H-M	'P 1'

loop_
_symmetry_equiv_pos_as_xyz
  x,y,z

loop_
_atom_site_label
_atom_site_type_symbol
_atom_site_fract_x
_atom_site_fract_y
_atom_site_fract_z
_atom_site_charge
O 	O 	0.66346 0.36176 0.16597 -0.46300
O 	O 	0.33654 0.63824 0.83403 -0.46300
O 	O 	0.83654 0.86176 0.33403 -0.46400
O 	O 	0.16346 0.13824 0.66597 -0.46400
O 	O 	0.82710 0.68987 0.16373 -0.48900
O 	O 	0.17290 0.31013 0.83627 -0.48900
O 	O 	0.67290 0.18987 0.33627 -0.48900
O 	O 	0.32710 0.81013 0.66373 -0.48900
C 	C 	0.85333 0.52295 0.14364 0.35900
C 	C 	0.14667 0.47705 0.85636 0.35900
C 	C 	0.64667 0.02295 0.35636 0.36000
C 	C 	0.35333 0.97705 0.64364 0.36000
O 	O 	0.66349 0.69137 0.15550 -0.47000
O 	O 	0.33651 0.30863 0.84450 -0.47000
O 	O 	0.83651 0.19137 0.34450 -0.47000
O 	O 	0.16349 0.80863 0.65550 -0.47000
O 	O 	0.67177 0.86332 0.32574 -0.48500
O 	O 	0.32823 0.13668 0.67426 -0.48500
O 	O 	0.82823 0.36332 0.17426 -0.48400
O 	O 	0.17177 0.63668 0.82574 -0.48400
C 	C 	0.63581 0.52299 0.13424 0.34300
C 	C 	0.36419 0.47701 0.86576 0.34300
C 	C 	0.86419 0.02298 0.36576 0.34400
C 	C 	0.13581 0.97702 0.63424 0.34400
O 	O 	0.75291 0.52880 0.30586 -0.59800
O 	O 	0.24709 0.47120 0.69414 -0.59800
O 	O 	0.74709 0.02880 0.19414 -0.59700
O 	O 	0.25291 0.97120 0.80586 -0.59700
V 	V 	0.74946 0.80301 0.23964 1.80200
V 	V 	0.25054 0.19699 0.76036 1.80200
V 	V 	0.75054 0.30301 0.26036 1.80200
V 	V 	0.24946 0.69699 0.73964 1.80200
C 	C 	0.46884 0.99476 0.53014 0.03500
C 	C 	0.53116 0.00524 0.46986 0.03500
C 	C 	0.03116 0.49476 0.96986 0.03500
C 	C 	0.96884 0.50524 0.03014 0.03500
H 	H 	0.76015 0.01283 0.65372 0.03100
H 	H 	0.23985 0.98716 0.34628 0.03100
H 	H 	0.73977 0.51678 0.84621 0.03100
H 	H 	0.26023 0.48325 0.15379 0.03100
C 	C 	0.03460 0.01534 0.31812 0.07400
C 	C 	0.96540 0.98465 0.68188 0.07400
C 	C 	0.46543 0.51358 0.18191 0.07500
C 	C 	0.53457 0.48644 0.81808 0.07500
C 	C 	0.11530 0.00757 0.29754 -0.08200
C 	C 	0.88470 0.99243 0.70246 -0.08200
C 	C 	0.38476 0.50471 0.20252 -0.08200
C 	C 	0.61524 0.49532 0.79748 -0.08200
C 	C 	0.17780 0.99285 0.36340 0.00900
C 	C 	0.82220 0.00715 0.63660 0.00900
C 	C 	0.32226 0.48978 0.13666 0.00900
C 	C 	0.67774 0.51024 0.86334 0.00900
C 	C 	0.16114 0.98597 0.45123 -0.06500
C 	C 	0.83886 0.01403 0.54877 -0.06500
C 	C 	0.33891 0.48384 0.04881 -0.06500
C 	C 	0.66109 0.51617 0.95119 -0.06500
C 	C 	0.08066 0.99301 0.47584 0.05800
C 	C 	0.91934 0.00698 0.52416 0.05800
C 	C 	0.41936 0.49197 0.02417 0.05700
C 	C 	0.58064 0.50804 0.97582 0.05700
C 	C 	0.01539 0.00727 0.40843 0.00000
C 	C 	0.98461 0.99273 0.59157 0.00000
C 	C 	0.48463 0.50633 0.09159 0.00200
C 	C 	0.51537 0.49368 0.90841 0.00200
C 	C 	0.06569 0.98643 0.56654 -0.07900
C 	C 	0.93431 0.01357 0.43346 -0.07900
C 	C 	0.43432 0.48638 0.93346 -0.07900
C 	C 	0.56568 0.51362 0.06654 -0.07900
C 	C 	0.41604 0.98618 0.58152 -0.10000
C 	C 	0.58396 0.01382 0.41848 -0.10000
C 	C 	0.08396 0.48618 0.91849 -0.10000
C 	C 	0.91604 0.51382 0.08151 -0.10000
H 	H 	0.21259 0.97489 0.49959 0.06100
H 	H 	0.78741 0.02510 0.50041 0.06100
H 	H 	0.28747 0.47263 0.00045 0.06100
H 	H 	0.71253 0.52738 0.99955 0.06100
H 	H 	0.12956 0.01354 0.22933 0.05400
H 	H 	0.87044 0.98645 0.77067 0.05400
H 	H 	0.37050 0.51002 0.27075 0.05400
H 	H 	0.62950 0.49002 0.72925 0.05400
N 	N 	0.97359 0.03283 0.24603 -0.18500
H 	H 	0.97843 0.92042 0.20372 0.09200
H 	H 	0.98504 0.15284 0.21105 0.09500
N 	N 	0.02641 0.96717 0.75397 -0.18500
H 	H 	0.02157 0.07958 0.79628 0.09200
H 	H 	0.01495 0.84715 0.78896 0.09500
N 	N 	0.52641 0.53146 0.25400 -0.18600
H 	H 	0.52182 0.41882 0.29624 0.09400
H 	H 	0.51472 0.65120 0.28908 0.09500
N 	N 	0.47359 0.46857 0.74599 -0.18600
H 	H 	0.47817 0.58122 0.70377 0.09400
H 	H 	0.48529 0.34885 0.71091 0.09500
