data_crystal

_cell_length_a 10.71696
_cell_length_b 10.78514
_cell_length_c 17.10825
_cell_angle_alpha 99.83594
_cell_angle_beta  100.03248
_cell_angle_gamma 60.51806

_symmetry_space_group_name_	'P 1'
_symmetry_space_group_name_H-M	'P 1'

loop_
_symmetry_equiv_pos_as_xyz
  x,y,z

loop_
_atom_site_label
_atom_site_type_symbol
_atom_site_fract_x
_atom_site_fract_y
_atom_site_fract_z
_atom_site_charge
C 	C 	0.35574 0.76806 0.39792 0.43800
C 	C 	0.86796 0.20387 0.20366 0.08400
C 	C 	0.88177 0.20366 0.28736 0.05900
C 	C 	0.86402 0.43839 0.30533 -0.03000
C 	C 	0.85349 0.44296 0.22460 0.12800
C 	C 	0.86584 0.08310 0.15632 -0.13200
C 	C 	0.90693 0.95788 0.19017 0.07300
C 	C 	0.93905 0.95376 0.27234 0.06700
C 	C 	0.92062 0.07743 0.32105 -0.12800
C 	C 	0.85883 0.32959 0.33576 -0.09900
C 	C 	0.34996 0.82694 0.16098 -0.13000
C 	C 	0.36922 0.34660 0.35741 0.43200
C 	C 	0.43456 0.86937 0.22182 0.09800
C 	C 	0.41500 0.87750 0.30270 -0.04300
C 	C 	0.27674 0.74879 0.25837 -0.01800
C 	C 	0.27961 0.75886 0.18013 0.01600
C 	C 	0.53753 0.90373 0.20499 -0.08500
C 	C 	0.61405 0.94886 0.26594 0.04800
C 	C 	0.58961 0.96347 0.34460 -0.11300
C 	C 	0.47950 0.94345 0.36297 0.19700
C 	C 	0.33876 0.81186 0.32000 -0.09900
C 	C 	0.29847 0.27772 0.79942 -0.16900
C 	C 	0.78323 0.37343 0.40682 0.41600
C 	C 	0.42373 0.17632 0.76214 0.12500
C 	C 	0.47702 0.22390 0.71165 0.01200
C 	C 	0.24866 0.44637 0.70691 -0.03300
C 	C 	0.21058 0.41158 0.77026 0.00900
C 	C 	0.50145 0.03043 0.77669 -0.34000
C 	C 	0.63966 0.94210 0.75397 0.14600
C 	C 	0.70313 0.99809 0.71670 0.02300
C 	C 	0.62295 0.13778 0.69583 -0.12400
C 	C 	0.38071 0.35268 0.67630 -0.09200
C 	C 	0.81810 0.34243 0.70906 -0.05700
C 	C 	0.38134 0.71540 0.63151 0.30000
C 	C 	0.84525 0.31380 0.77663 -0.05500
C 	C 	0.35851 0.76514 0.71370 -0.01900
C 	C 	0.32566 0.81171 0.78057 -0.11300
C 	C 	0.89756 0.30783 0.09048 0.41500
C 	C 	0.31938 0.29975 0.12016 0.42800
C 	C 	0.29749 0.88967 0.08516 0.41600
C 	C 	0.88652 0.29728 0.85895 0.39800
C 	C 	0.27870 0.25339 0.87702 0.34700
C 	C 	0.28097 0.88099 0.85770 0.40700
C 	C 	0.40738 0.37475 0.60007 0.32600
C 	C 	0.77313 0.38099 0.62984 0.41500
C 	C 	0.34269 0.33662 0.27411 -0.10900
C 	C 	0.33171 0.32641 0.20340 -0.09200
C 	C 	0.85803 0.32374 0.17143 -0.14200
Cr	Cr	0.60810 0.61086 0.52225 1.54300
Cr	Cr	0.28889 0.59999 0.48842 1.52600
Cr	Cr	0.60304 0.28919 0.48939 1.53200
Cr	Cr	0.05396 0.05225 0.96738 1.38000
Cr	Cr	0.05989 0.37316 0.99271 1.41300
Cr	Cr	0.37337 0.06169 0.99171 1.43000
H 	H 	0.86131 0.52969 0.34472 0.06700
H 	H 	0.69047 0.97553 0.25156 0.04300
H 	H 	0.65079 0.99938 0.39095 0.07100
H 	H 	0.17516 0.54679 0.68215 0.01500
H 	H 	0.45658 0.98427 0.80618 0.18400
H 	H 	0.11296 0.48954 0.79659 -0.01400
H 	H 	0.69875 0.83172 0.76743 0.00300
H 	H 	0.81298 0.93239 0.70203 0.06500
H 	H 	0.67594 0.17659 0.66667 0.06200
H 	H 	0.82962 0.08344 0.09343 0.08800
H 	H 	0.91055 0.86469 0.15273 0.05600
H 	H 	0.96990 0.85687 0.29860 0.05300
H 	H 	0.94147 0.07282 0.38503 0.06700
H 	H 	0.22575 0.68965 0.27041 0.02000
H 	H 	0.56983 0.88588 0.14609 0.08100
H 	H 	0.22030 0.71931 0.13448 0.03200
O 	O 	0.74981 0.49979 0.43804 -0.47300
O 	O 	0.29897 0.46880 0.55739 -0.51900
O 	O 	0.48940 0.25593 0.56191 -0.47100
O 	O 	0.72389 0.30605 0.58461 -0.53900
O 	O 	0.50001 0.50001 0.50002 -0.75700
O 	O 	0.17110 0.91468 0.05310 -0.40100
O 	O 	0.94168 0.18484 0.05071 -0.37900
O 	O 	0.92208 0.40342 0.07261 -0.35100
O 	O 	0.19688 0.36915 0.08385 -0.48700
O 	O 	0.41173 0.18102 0.09153 -0.43600
O 	O 	0.36501 0.94436 0.06332 -0.40100
O 	O 	0.47766 0.72626 0.43929 -0.52600
O 	O 	0.15938 0.90667 0.87621 -0.52200
O 	O 	0.93082 0.17742 0.88673 -0.50800
O 	O 	0.91036 0.39542 0.89572 -0.46300
O 	O 	0.18601 0.36173 0.91987 -0.58100
O 	O 	0.40000 0.17301 0.91463 -0.53000
O 	O 	0.35414 0.93694 0.89934 -0.53600
O 	O 	0.16241 0.16237 0.98393 -0.92700
O 	O 	0.26015 0.74300 0.41227 -0.51800
O 	O 	0.29774 0.46655 0.39472 -0.56200
O 	O 	0.48808 0.25350 0.38643 -0.51600
O 	O 	0.72267 0.30380 0.42194 -0.52400
O 	O 	0.75113 0.50222 0.61352 -0.46400
O 	O 	0.47889 0.72851 0.60196 -0.47300
O 	O 	0.26147 0.74543 0.58775 -0.46000
C 	C 	0.42401 0.00992 0.44336 -0.42700
H 	H 	0.40098 0.12277 0.45224 0.10100
H 	H 	0.31970 0.01517 0.44795 0.06900
H 	H 	0.50576 0.95221 0.49197 0.16500
C 	C 	0.83550 0.57966 0.19953 -0.21800
H 	H 	0.80488 0.66729 0.24869 0.08300
H 	H 	0.93891 0.56295 0.18317 0.12600
H 	H 	0.74848 0.61782 0.14964 0.10700
