data_crystal

_cell_length_a 11.00430
_cell_length_b 11.02433
_cell_length_c 18.80318
_cell_angle_alpha 90.40286
_cell_angle_beta  90.11027
_cell_angle_gamma 60.43989

_symmetry_space_group_name_	'P 1'
_symmetry_space_group_name_H-M	'P 1'

loop_
_symmetry_equiv_pos_as_xyz
  x,y,z

loop_
_atom_site_label
_atom_site_type_symbol
_atom_site_fract_x
_atom_site_fract_y
_atom_site_fract_z
_atom_site_charge
O 	O 	0.50738 0.25570 0.58144 -0.46000
O 	O 	0.28032 0.52735 0.57893 -0.51000
C 	C 	0.23731 0.64591 0.60980 0.41300
O 	O 	0.26051 0.73959 0.58459 -0.47400
O 	O 	0.53230 0.69508 0.57382 -0.51800
C 	C 	0.65654 0.62546 0.59899 0.36300
O 	O 	0.74484 0.50350 0.57637 -0.48000
O 	O 	0.69912 0.27656 0.57196 -0.51800
C 	C 	0.62886 0.22706 0.60195 0.41200
O 	O 	0.49894 0.25650 0.41986 -0.47000
O 	O 	0.27250 0.52808 0.42915 -0.51800
C 	C 	0.21960 0.65063 0.40244 0.42700
O 	O 	0.25206 0.74038 0.42301 -0.49100
O 	O 	0.52448 0.69581 0.42404 -0.53300
C 	C 	0.64051 0.62024 0.39118 0.40300
O 	O 	0.73639 0.50429 0.41479 -0.50000
O 	O 	0.69130 0.27729 0.42217 -0.52600
C 	C 	0.61717 0.22648 0.39637 0.43000
Cr	Cr	0.39296 0.39792 0.50224 1.53700
Cr	Cr	0.39834 0.70848 0.50125 1.52900
Cr	Cr	0.70867 0.39357 0.49646 1.52900
O 	O 	0.49999 0.49999 0.49998 -0.74000
C 	C 	0.58784 0.82622 0.78032 0.05800
H 	H 	0.63184 0.89618 0.78962 -0.01300
C 	C 	0.57980 0.81232 0.69790 -0.07700
H 	H 	0.62372 0.87368 0.67281 0.02000
H 	H 	0.86935 0.71927 0.78108 -0.00000
H 	H 	0.84639 0.69949 0.66413 -0.01700
C 	C 	0.83988 0.63711 0.77204 -0.04700
C 	C 	0.64739 0.57468 0.79866 0.06600
C 	C 	0.69852 0.68058 0.81182 -0.10700
H 	H 	0.53952 0.61690 0.81876 0.05000
C 	C 	0.67523 0.65431 0.67439 -0.06000
C 	C 	0.82807 0.62035 0.69123 0.01400
C 	C 	0.63978 0.55525 0.71842 -0.07700
H 	H 	0.53301 0.57488 0.70474 0.05200
H 	H 	0.71157 0.44506 0.70366 0.08000
H 	H 	0.92734 0.54101 0.79461 0.04400
C 	C 	0.68231 0.15213 0.82222 -0.08000
C 	C 	0.78323 0.16477 0.78357 0.04500
C 	C 	0.77381 0.17939 0.70951 0.02600
C 	C 	0.57411 0.14625 0.71064 0.01700
C 	C 	0.57229 0.15287 0.78373 0.00900
C 	C 	0.93365 0.06380 0.78127 0.05300
C 	C 	0.92545 0.08047 0.70145 0.05700
C 	C 	0.66991 0.16784 0.67239 -0.09500
H 	H 	0.49054 0.13859 0.68441 0.08600
H 	H 	0.48886 0.14604 0.80978 0.07800
H 	H 	0.94889 0.96190 0.79917 -0.10300
H 	H 	0.99868 0.10208 0.80776 0.03900
H 	H 	0.98335 0.13150 0.68080 0.03200
H 	H 	0.94387 0.98553 0.67152 -0.10900
C 	C 	0.17680 0.67022 0.83406 -0.11400
C 	C 	0.16355 0.56873 0.79518 0.08100
C 	C 	0.17411 0.56346 0.72103 0.07400
C 	C 	0.18387 0.77476 0.72280 0.01900
C 	C 	0.19361 0.76974 0.79641 0.01500
C 	C 	0.25766 0.41580 0.80076 -0.09200
C 	C 	0.27215 0.41145 0.72074 -0.09300
C 	C 	0.18571 0.66604 0.68331 -0.12000
H 	H 	0.17802 0.86376 0.69665 0.04700
H 	H 	0.19560 0.85530 0.82367 0.05400
H 	H 	0.20174 0.36173 0.82036 0.10300
H 	H 	0.35485 0.39116 0.83003 0.06900
H 	H 	0.37578 0.39194 0.70255 0.06400
H 	H 	0.23038 0.35010 0.69357 0.09800
C 	C 	0.64744 0.67469 0.16687 -0.13300
C 	C 	0.70941 0.54384 0.19790 0.03600
C 	C 	0.70712 0.52811 0.27014 0.06400
C 	C 	0.56539 0.77667 0.28484 -0.00500
C 	C 	0.56529 0.79177 0.21060 -0.01300
C 	C 	0.85314 0.42214 0.19020 0.02400
C 	C 	0.85019 0.40212 0.26983 -0.12300
C 	C 	0.64630 0.64437 0.31556 -0.15300
H 	H 	0.50697 0.86818 0.31804 -0.00400
H 	H 	0.51212 0.89572 0.18857 -0.00300
H 	H 	0.93312 0.44848 0.17405 0.00300
H 	H 	0.84849 0.30655 0.28469 0.06400
H 	H 	0.92772 0.41990 0.29937 0.02300
C 	C 	0.66720 0.12387 0.18205 -0.11700
C 	C 	0.55237 0.13424 0.21775 0.07600
C 	C 	0.54309 0.15024 0.29014 0.07700
C 	C 	0.77793 0.11259 0.29587 0.02100
C 	C 	0.78516 0.10017 0.22209 0.01100
C 	C 	0.40125 0.23329 0.20599 -0.09000
C 	C 	0.38981 0.25344 0.28578 -0.08800
C 	C 	0.65052 0.15379 0.32917 -0.13300
H 	H 	0.86648 0.10346 0.32553 0.02700
H 	H 	0.88120 0.07680 0.19626 0.05500
H 	H 	0.34491 0.18008 0.18521 0.09500
H 	H 	0.38226 0.32823 0.17655 0.06800
H 	H 	0.36590 0.35994 0.30212 0.06500
H 	H 	0.32448 0.21452 0.31111 0.08400
C 	C 	0.06398 0.72164 0.19467 -0.08100
C 	C 	0.07844 0.82289 0.23229 0.03600
C 	C 	0.11077 0.80772 0.30300 0.06300
C 	C 	0.10338 0.59247 0.30454 0.03100
C 	C 	0.07029 0.60883 0.23200 -0.00300
C 	C 	0.17178 0.88270 0.21681 -0.08500
C 	C 	0.20484 0.86945 0.29476 -0.09100
C 	C 	0.13531 0.68686 0.33875 -0.13800
H 	H 	0.11827 0.49949 0.33131 0.05000
H 	H 	0.06311 0.52758 0.20416 0.07700
H 	H 	0.11527 0.99256 0.19945 0.04800
H 	H 	0.26356 0.81259 0.18335 0.06000
H 	H 	0.31615 0.79363 0.30534 0.05900
H 	H 	0.16342 0.97166 0.32257 0.02900
O 	O 	0.08940 0.82569 0.93057 -0.42500
O 	O 	0.81846 0.05444 0.92985 -0.43500
C 	C 	0.70243 0.09909 0.89516 0.40400
O 	O 	0.60606 0.07715 0.91551 -0.40100
O 	O 	0.64655 0.80668 0.91757 -0.52500
C 	C 	0.72428 0.68987 0.88806 0.42200
O 	O 	0.83717 0.59341 0.91525 -0.47400
O 	O 	0.06520 0.63553 0.93157 -0.43500
C 	C 	0.11758 0.70658 0.90563 0.40800
O 	O 	0.06826 0.82889 0.09184 -0.42500
O 	O 	0.79887 0.05741 0.07934 -0.47000
C 	C 	0.67930 0.09706 0.10661 0.42000
O 	O 	0.58493 0.08035 0.07678 -0.42300
O 	O 	0.62696 0.80965 0.06706 -0.56300
C 	C 	0.69579 0.69165 0.09763 0.41600
O 	O 	0.81604 0.59661 0.07651 -0.50400
O 	O 	0.04561 0.63850 0.08106 -0.43000
C 	C 	0.03387 0.74316 0.11928 0.34000
Cr	Cr	0.93765 0.93854 0.00761 1.42500
Cr	Cr	0.62533 0.93737 0.99452 1.50100
Cr	Cr	0.93794 0.62523 0.00119 1.47600
O 	O 	0.83364 0.83371 0.00110 -0.85100
C 	C 	0.94417 0.48152 0.66421 -0.07800
H 	H 	0.00566 0.47931 0.61863 0.14500
O 	O 	0.96848 0.37171 0.69136 -0.17400
N 	N 	0.44826 0.89384 0.81553 -0.08700
O 	O 	0.41780 0.83547 0.86719 -0.13700
O 	O 	0.35814 0.02273 0.80080 0.01900
N 	N 	0.85683 0.31114 0.14594 -0.01200
O 	O 	0.74810 0.33435 0.10830 -0.11600
O 	O 	0.97803 0.20815 0.12758 -0.17300
C 	C 	0.43184 0.87813 0.67279 0.14100
H 	H 	0.37826 0.82156 0.68120 0.00800
O 	O 	0.37622 0.98904 0.64126 -0.27900
N 	N 	0.73244 0.44292 0.83609 -0.01700
O 	O 	0.86577 0.36765 0.82419 -0.12300
O 	O 	0.67821 0.41107 0.88929 -0.10500
