data_crystal

_cell_length_a 8.31772
_cell_length_b 12.67627
_cell_length_c 18.68934
_cell_angle_alpha 98.88892
_cell_angle_beta  91.60402
_cell_angle_gamma 98.27567

_symmetry_space_group_name_	'P 1'
_symmetry_space_group_name_H-M	'P 1'

loop_
_symmetry_equiv_pos_as_xyz
  x,y,z

loop_
_atom_site_label
_atom_site_type_symbol
_atom_site_fract_x
_atom_site_fract_y
_atom_site_fract_z
_atom_site_charge
P 	P 	0.04104 0.39477 0.33633 0.37400
O 	O 	0.87309 0.42589 0.32514 -0.36600
O 	O 	0.12242 0.43437 0.41438 -0.50300
O 	O 	0.65950 0.62710 0.36881 -0.35400
O 	O 	0.76262 0.54805 0.24118 -0.22300
O 	O 	0.01883 0.25444 0.31652 -0.21900
O 	O 	0.67599 0.73996 0.25206 -0.21700
H 	H 	0.61879 0.85886 0.33142 0.03500
C 	C 	0.51206 0.87155 0.22692 -0.19800
H 	H 	0.42770 0.92603 0.25104 0.08600
H 	H 	0.62002 0.92091 0.20915 0.08700
P 	P 	0.67288 0.75403 0.55610 0.34300
P 	P 	0.13799 0.82167 0.39807 0.31900
O 	O 	0.84820 0.76819 0.53453 -0.34900
O 	O 	0.08116 0.68595 0.40481 -0.34200
O 	O 	0.00405 0.88358 0.43220 -0.17500
O 	O 	0.69375 0.79762 0.64968 -0.23500
O 	O 	0.13525 0.83822 0.30659 -0.20600
C 	C 	0.08305 0.73800 0.26321 0.12900
H 	H 	0.96837 0.69959 0.28224 0.01500
H 	H 	0.17694 0.68476 0.26490 0.01200
C 	C 	0.05201 0.75313 0.18502 -0.16700
H 	H 	0.00078 0.67447 0.15199 0.08800
H 	H 	0.96312 0.80979 0.18184 0.07600
C 	C 	0.27550 0.78689 0.62555 0.13600
H 	H 	0.40100 0.81144 0.64904 0.01100
H 	H 	0.27681 0.72799 0.57518 -0.04100
C 	C 	0.21140 0.88627 0.60676 -0.23100
H 	H 	0.15119 0.92673 0.65327 0.11400
H 	H 	0.31191 0.94406 0.59093 0.09500
H 	H 	0.12157 0.86279 0.56062 0.10900
Ba	Ba	0.85278 0.54834 0.46507 1.86200
C 	C 	0.90584 0.20560 0.35946 0.08100
H 	H 	0.82342 0.26030 0.38422 -0.01200
H 	H 	0.97313 0.17694 0.40302 0.00900
C 	C 	0.80428 0.10980 0.31160 -0.15400
H 	H 	0.71404 0.06793 0.34428 0.08200
H 	H 	0.73807 0.13843 0.26772 0.07300
C 	C 	0.73301 0.71509 0.68535 0.11300
H 	H 	0.84008 0.68323 0.66155 -0.01700
H 	H 	0.62824 0.64898 0.68132 -0.00800
C 	C 	0.77609 0.76197 0.76517 -0.17700
H 	H 	0.89091 0.82006 0.76915 0.09500
H 	H 	0.79598 0.69652 0.79594 0.07300
P 	P 	0.14867 0.60532 0.66368 0.35400
O 	O 	0.31661 0.57414 0.67490 -0.34700
O 	O 	0.06729 0.56572 0.58563 -0.49100
O 	O 	0.53021 0.37299 0.63120 -0.34900
O 	O 	0.18034 0.74647 0.67856 -0.23800
P 	P 	0.06717 0.17231 0.58950 0.33400
O 	O 	0.61134 0.36629 0.46363 -0.47700
O 	O 	0.10855 0.31414 0.59520 -0.34100
O 	O 	0.20686 0.12210 0.55128 -0.20900
O 	O 	0.07613 0.13301 0.67552 -0.18400
Ba	Ba	0.33706 0.45175 0.53494 1.93800
P 	P 	0.63034 0.61081 0.27503 0.31800
C 	C 	0.56188 0.80438 0.28223 0.09600
H 	H 	0.44881 0.75838 0.29884 0.01300
H 	H 	0.45069 0.81744 0.17856 0.07900
O 	O 	0.57837 0.63380 0.53638 -0.50200
C 	C 	0.45702 0.28375 0.31301 0.12200
H 	H 	0.34961 0.31435 0.33748 -0.00900
H 	H 	0.56346 0.34896 0.32095 -0.00900
C 	C 	0.41935 0.24757 0.23200 -0.20700
H 	H 	0.30926 0.18521 0.22282 0.09200
H 	H 	0.39724 0.31683 0.20546 0.08000
H 	H 	0.52348 0.21322 0.20665 0.08000
P 	P 	0.51791 0.23142 0.43769 0.30300
O 	O 	0.34151 0.23185 0.46551 -0.31400
O 	O 	0.49128 0.19497 0.34353 -0.24100
H 	H 	0.16680 0.78512 0.16193 0.07500
C 	C 	0.11834 0.22195 0.73106 0.01900
H 	H 	0.23866 0.26368 0.72159 0.05900
H 	H 	0.03485 0.28241 0.73158 0.08700
C 	C 	0.11931 0.18090 0.80510 0.08200
H 	H 	0.15277 0.09849 0.79745 0.05700
P 	P 	0.55232 0.39241 0.72624 0.32500
C 	C 	0.53219 0.18028 0.70273 0.18200
O 	O 	0.41486 0.45342 0.75664 -0.20600
O 	O 	0.51214 0.26710 0.75720 -0.20900
H 	H 	0.46775 0.18509 0.65068 0.01700
H 	H 	0.49373 0.07363 0.78425 0.12500
C 	C 	0.45793 0.07447 0.72666 -0.22700
H 	H 	0.49703 0.00394 0.69258 0.09900
H 	H 	0.32547 0.06404 0.71919 0.09800
C 	C 	0.98467 0.46413 0.05094 -0.04800
C 	C 	0.88426 0.41100 0.09796 0.06000
C 	C 	0.72088 0.37190 0.07614 -0.03400
C 	C 	0.65828 0.38431 0.00817 -0.07400
C 	C 	0.75891 0.43324 0.95971 0.08900
C 	C 	0.92262 0.47377 0.98113 -0.05100
C 	C 	0.69976 0.43805 0.88934 -0.10800
C 	C 	0.80454 0.47615 0.83758 0.10600
C 	C 	0.96768 0.52149 0.85991 -0.12700
C 	C 	0.02499 0.52170 0.93234 0.11600
C 	C 	0.75414 0.46466 0.76338 -0.08500
C 	C 	0.86503 0.49798 0.71340 0.00900
C 	C 	0.02274 0.54987 0.73488 -0.07000
C 	C 	0.07524 0.56327 0.80953 0.12400
C 	C 	0.14750 0.50579 0.07318 0.06200
C 	C 	0.20780 0.49990 0.14413 -0.08000
C 	C 	0.10455 0.45034 0.19289 0.11800
C 	C 	0.94707 0.39951 0.16656 -0.12600
H 	H 	0.64080 0.33266 0.11199 0.04500
H 	H 	0.53156 0.35385 0.99305 0.08100
H 	H 	0.82587 0.48585 0.65663 -0.01100
H 	H 	0.57348 0.40680 0.87466 0.09800
H 	H 	0.86898 0.35372 0.19960 0.08200
C 	C 	0.23308 0.61375 0.83530 -0.09700
C 	C 	0.29141 0.61054 0.90609 0.07400
C 	C 	0.18779 0.56366 0.95471 -0.02800
C 	C 	0.24890 0.55576 0.02497 -0.01800
C 	C 	0.45467 0.64931 0.92805 -0.05600
C 	C 	0.51467 0.64246 0.99746 -0.02100
C 	C 	0.41273 0.59593 0.04632 0.03000
C 	C 	0.37087 0.54473 0.16633 0.07700
C 	C 	0.47282 0.58910 0.11596 -0.09400
C 	C 	0.42570 0.54642 0.23887 -0.10600
C 	C 	0.31939 0.50678 0.28810 0.03800
C 	C 	0.16161 0.45625 0.26652 -0.10500
H 	H 	0.31488 0.65253 0.80022 0.08500
H 	H 	0.53743 0.68242 0.89092 0.05900
H 	H 	0.64163 0.67253 0.01264 0.03500
H 	H 	0.59956 0.61972 0.13024 0.06800
H 	H 	0.36236 0.51260 0.34398 -0.02100
C 	C 	0.77474 0.17754 0.51349 0.01400
C 	C 	0.43313 0.80711 0.46814 0.01200
C 	C 	0.40356 0.98389 0.44268 -0.01300
C 	C 	0.34072 0.87567 0.44017 -0.06100
C 	C 	0.58178 0.84747 0.50616 -0.07500
C 	C 	0.64856 0.95833 0.50960 0.04400
C 	C 	0.55716 0.02688 0.47703 0.00700
C 	C 	0.62101 0.13715 0.48076 -0.06100
C 	C 	0.86877 0.11108 0.54260 -0.04500
C 	C 	0.80359 0.00302 0.54338 -0.03000
H 	H 	0.33018 0.03306 0.41759 0.06700
H 	H 	0.87492 0.95656 0.57164 0.07100
H 	H 	0.82313 0.26207 0.51592 -0.00800
H 	H 	0.38483 0.72223 0.46313 -0.00700
C 	C 	0.91018 0.03247 0.27782 0.11300
H 	H 	0.00039 0.05636 0.24023 0.03900
O 	O 	0.89431 0.94148 0.29223 -0.18400
C 	C 	0.64402 0.81892 0.79909 0.16600
H 	H 	0.52309 0.80654 0.77298 0.01200
O 	O 	0.67037 0.87700 0.85791 -0.19200
N 	N 	0.23826 0.25041 0.85710 -0.01000
O 	O 	0.34760 0.20903 0.89024 -0.10200
O 	O 	0.23409 0.35344 0.87181 -0.09200
N 	N 	0.95867 0.17332 0.83517 -0.01800
O 	O 	0.88825 0.08177 0.85069 -0.09200
O 	O 	0.88883 0.25861 0.85062 -0.09300
N 	N 	0.70410 0.17916 0.69136 -0.02700
O 	O 	0.78590 0.25768 0.66469 -0.12900
O 	O 	0.77329 0.09680 0.70206 -0.09900
