data_crystal

_cell_length_a 8.68469
_cell_length_b 13.20110
_cell_length_c 19.09046
_cell_angle_alpha 101.57911
_cell_angle_beta  90.52597
_cell_angle_gamma 100.19962

_symmetry_space_group_name_	'P 1'
_symmetry_space_group_name_H-M	'P 1'

loop_
_symmetry_equiv_pos_as_xyz
  x,y,z

loop_
_atom_site_label
_atom_site_type_symbol
_atom_site_fract_x
_atom_site_fract_y
_atom_site_fract_z
_atom_site_charge
Ba	Ba	0.85318 0.54779 0.46530 1.99100
Ba	Ba	0.33665 0.45230 0.53471 1.98800
C 	C 	0.56134 0.90469 0.28658 -0.21100
C 	C 	0.60387 0.82311 0.32304 0.10700
C 	C 	0.45350 0.17851 0.29825 0.02900
C 	C 	0.51058 0.12009 0.22494 -0.15300
C 	C 	0.10975 0.26457 0.73966 0.10200
C 	C 	0.12122 0.25974 0.82088 -0.19700
C 	C 	0.48893 0.19073 0.73119 0.05000
C 	C 	0.40031 0.11963 0.77663 -0.19100
C 	C 	0.06633 0.56897 0.80541 -0.02800
C 	C 	0.01643 0.55930 0.73315 0.01200
C 	C 	0.83866 0.44106 0.81801 -0.05600
C 	C 	0.04824 0.76075 0.27783 0.16600
C 	C 	0.76741 0.45885 0.75654 0.01800
C 	C 	0.32999 0.59132 0.19144 -0.02700
C 	C 	0.39205 0.58358 0.25750 -0.04800
C 	C 	0.12525 0.44440 0.19865 -0.01700
C 	C 	0.15897 0.46282 0.27357 -0.03000
C 	C 	0.97943 0.50652 0.85079 -0.01200
C 	C 	0.85715 0.52103 0.71607 -0.09700
C 	C 	0.20143 0.51583 0.15633 0.02100
C 	C 	0.29590 0.53243 0.30174 0.01000
C 	C 	0.76526 0.45734 0.97004 -0.03500
C 	C 	0.97446 0.79080 0.21338 -0.26000
C 	C 	0.66559 0.41159 0.01642 -0.00100
C 	C 	0.71630 0.42653 0.08701 -0.02800
C 	C 	0.86952 0.47471 0.10736 -0.02900
C 	C 	0.98384 0.48928 0.05645 -0.00700
C 	C 	0.92909 0.48430 0.98412 0.00200
C 	C 	0.14654 0.51348 0.07797 0.01400
C 	C 	0.25313 0.53689 0.02367 0.02300
C 	C 	0.19837 0.52618 0.95050 0.01100
C 	C 	0.03550 0.50582 0.92920 0.01400
C 	C 	0.41684 0.56976 0.03879 -0.03800
C 	C 	0.18737 0.78821 0.61804 0.14000
C 	C 	0.51606 0.60542 0.98879 -0.01500
C 	C 	0.46596 0.58117 0.91766 -0.01700
C 	C 	0.31258 0.53125 0.89884 -0.03400
C 	C 	0.74808 0.18431 0.53923 0.03100
C 	C 	0.43231 0.81077 0.47881 -0.02700
C 	C 	0.40698 0.98141 0.45653 -0.11100
C 	C 	0.34332 0.87532 0.45300 -0.01100
C 	C 	0.58139 0.85081 0.51257 -0.03000
C 	C 	0.64223 0.96281 0.52009 -0.04200
C 	C 	0.55281 0.02851 0.49089 0.11400
C 	C 	0.13142 0.89243 0.63832 -0.22500
C 	C 	0.60828 0.14055 0.49918 -0.05900
C 	C 	0.84249 0.12128 0.56371 -0.03700
C 	C 	0.78908 0.01170 0.55461 0.06300
C 	C 	0.05114 0.18899 0.32670 0.08300
C 	C 	0.03044 0.10105 0.26062 -0.18000
C 	C 	0.56974 0.77552 0.68654 0.12100
C 	C 	0.51936 0.87178 0.72828 -0.21700
H 	H 	0.69099 0.85991 0.36788 0.03000
H 	H 	0.20573 0.94372 0.68350 0.09800
H 	H 	0.13775 0.93157 0.59198 0.11600
H 	H 	0.00924 0.88028 0.65546 0.12600
H 	H 	0.17151 0.22749 0.33845 0.03100
H 	H 	0.03326 0.13651 0.21285 0.13300
H 	H 	0.91713 0.04705 0.25849 0.08400
H 	H 	0.12092 0.05215 0.26001 0.11200
H 	H 	0.60243 0.73293 0.72725 0.03100
H 	H 	0.47127 0.72769 0.65164 0.01300
H 	H 	0.66653 0.94321 0.26316 0.08200
H 	H 	0.61773 0.92031 0.76434 0.09100
H 	H 	0.42052 0.84964 0.76192 0.09000
H 	H 	0.48189 0.91536 0.68932 0.09800
H 	H 	0.49344 0.78627 0.34380 0.01000
H 	H 	0.51063 0.96332 0.32472 0.08400
H 	H 	0.34308 0.13148 0.30963 0.04500
H 	H 	0.49168 0.03713 0.22655 0.10300
H 	H 	0.47460 0.86482 0.24247 0.10300
H 	H 	0.89151 0.72171 0.18311 0.10400
H 	H 	0.22085 0.30800 0.72493 0.02600
H 	H 	0.02760 0.31690 0.73312 0.04300
H 	H 	0.24390 0.28678 0.84086 0.10900
H 	H 	0.05878 0.31941 0.85048 0.10300
H 	H 	0.42108 0.15785 0.83393 0.11100
H 	H 	0.27466 0.10235 0.76122 0.10800
H 	H 	0.95114 0.71383 0.30142 -0.00000
H 	H 	0.43838 0.04430 0.77132 0.08700
H 	H 	0.17246 0.62435 0.82443 0.05400
H 	H 	0.77920 0.37884 0.84106 0.07500
H 	H 	0.38521 0.65619 0.16850 0.05600
H 	H 	0.03518 0.37828 0.17507 0.07100
H 	H 	0.33441 0.54144 0.35701 0.00200
H 	H 	0.70841 0.47700 0.92619 0.05400
H 	H 	0.63580 0.40564 0.12681 0.07900
H 	H 	0.13657 0.71124 0.26003 0.01200
H 	H 	0.89665 0.49956 0.16346 0.05700
H 	H 	0.47634 0.56128 0.08600 0.05000
H 	H 	0.63804 0.63812 0.00367 0.03700
H 	H 	0.54894 0.59442 0.87709 0.05100
H 	H 	0.28374 0.49596 0.84364 0.06200
H 	H 	0.34252 0.02747 0.43181 0.11200
H 	H 	0.86269 0.96584 0.57543 0.03700
H 	H 	0.79091 0.26795 0.54639 0.04000
H 	H 	0.38226 0.72844 0.47435 -0.00100
H 	H 	0.90917 0.85527 0.23246 0.10600
H 	H 	0.30619 0.80371 0.59857 -0.00900
H 	H 	0.11037 0.73859 0.57321 -0.01700
O 	O 	0.87511 0.42318 0.32629 -0.34400
O 	O 	0.70197 0.80447 0.64863 -0.21900
O 	O 	0.11807 0.85159 0.32775 -0.21500
O 	O 	0.31460 0.57686 0.67375 -0.31600
O 	O 	0.06630 0.56705 0.58506 -0.42900
O 	O 	0.52870 0.37502 0.63033 -0.28800
O 	O 	0.19349 0.74594 0.67994 -0.23900
O 	O 	0.61176 0.36572 0.46387 -0.40400
O 	O 	0.10746 0.31562 0.59457 -0.31500
O 	O 	0.15621 0.12045 0.55890 -0.17500
O 	O 	0.07263 0.16593 0.69205 -0.18800
O 	O 	0.12341 0.43304 0.41495 -0.45500
O 	O 	0.57795 0.63437 0.53614 -0.44600
O 	O 	0.34190 0.23131 0.46574 -0.28700
O 	O 	0.56251 0.18241 0.35472 -0.20900
O 	O 	0.46345 0.48195 0.75205 -0.20200
O 	O 	0.47009 0.29385 0.76390 -0.20700
O 	O 	0.66101 0.62507 0.36968 -0.34300
O 	O 	0.70512 0.56382 0.23342 -0.21700
O 	O 	0.95386 0.25900 0.31887 -0.23600
O 	O 	0.67018 0.75450 0.27185 -0.23300
O 	O 	0.84780 0.76873 0.53431 -0.30800
O 	O 	0.08225 0.68447 0.40544 -0.34300
O 	O 	0.02161 0.87359 0.45720 -0.17900
P 	P 	0.04293 0.39223 0.33741 0.35000
P 	P 	0.67223 0.75490 0.55573 0.32100
P 	P 	0.14312 0.82008 0.41209 0.30400
P 	P 	0.14679 0.60786 0.66260 0.31400
P 	P 	0.04319 0.18331 0.60330 0.34000
P 	P 	0.60273 0.62818 0.28287 0.31600
P 	P 	0.52243 0.22852 0.44675 0.29200
P 	P 	0.56150 0.39671 0.72447 0.31300
S 	S 	0.99385 0.13718 0.40119 0.30900
O 	O 	0.10112 0.06624 0.41501 -0.16000
O 	O 	0.00801 0.23137 0.46070 -0.22400
O 	O 	0.81127 0.06841 0.39071 -0.27800
H 	H 	0.76568 0.08818 0.34926 0.16100
S 	S 	0.43074 0.30645 0.29025 0.38300
O 	O 	0.29865 0.29524 0.23681 -0.20800
O 	O 	0.39422 0.36738 0.36133 -0.31300
O 	O 	0.59071 0.37099 0.26106 -0.27600
H 	H 	0.62142 0.43083 0.30139 0.14400
S 	S 	0.41287 0.12074 0.14098 0.41000
O 	O 	0.23863 0.09645 0.14270 -0.17700
O 	O 	0.46048 0.22557 0.12067 -0.20400
O 	O 	0.46737 0.02751 0.07720 -0.26200
H 	H 	0.54754 0.06545 0.05049 0.17500
C 	C 	0.68070 0.15360 0.21421 0.15800
H 	H 	0.74037 0.23169 0.23777 0.04000
O 	O 	0.74820 0.09662 0.17164 -0.19900
S 	S 	0.04750 0.14000 0.85228 0.43800
O 	O 	0.17817 0.10038 0.88398 -0.21000
O 	O 	0.93905 0.16448 0.91170 -0.21400
O 	O 	0.95338 0.04445 0.78628 -0.26800
H 	H 	0.91879 0.98365 0.80907 0.13700
S 	S 	0.68606 0.17480 0.73424 0.35100
O 	O 	0.70435 0.06561 0.69966 -0.19400
O 	O 	0.77812 0.24987 0.69488 -0.21800
O 	O 	0.74533 0.19924 0.82030 -0.28100
H 	H 	0.68972 0.13871 0.83901 0.16800
C 	C 	0.42351 0.15615 0.65570 0.10400
H 	H 	0.38520 0.21083 0.62792 0.03200
O 	O 	0.41208 0.06467 0.62494 -0.17500
S 	S 	0.77093 0.55798 0.64574 0.42300
O 	O 	0.77959 0.47323 0.58183 -0.42000
O 	O 	0.60511 0.56979 0.65519 -0.28900
O 	O 	0.87206 0.67457 0.63973 -0.35100
H 	H 	0.88773 0.71474 0.68990 0.16600
C 	C 	0.50516 0.35625 0.99268 0.10900
H 	H 	0.42025 0.33669 0.03134 0.04100
O 	O 	0.46597 0.33192 0.92923 -0.18400
S 	S 	0.11202 0.83348 0.15221 0.43300
O 	O 	0.24659 0.90965 0.19280 -0.22700
O 	O 	0.17173 0.74223 0.10841 -0.22300
O 	O 	0.02455 0.89326 0.09737 -0.25400
H 	H 	0.93525 0.83943 0.07357 0.13500
