data_crystal

_cell_length_a 23.21522
_cell_length_b 7.29439
_cell_length_c 15.09938
_cell_angle_alpha 89.99990
_cell_angle_beta  108.12042
_cell_angle_gamma 90.00003

_symmetry_space_group_name_	'P 1'
_symmetry_space_group_name_H-M	'P 1'

loop_
_symmetry_equiv_pos_as_xyz
  x,y,z

loop_
_atom_site_label
_atom_site_type_symbol
_atom_site_fract_x
_atom_site_fract_y
_atom_site_fract_z
_atom_site_charge
O 	O 	0.71100 0.64861 0.34117 -0.46200
O 	O 	0.28900 0.35139 0.65883 -0.46400
O 	O 	0.78900 0.14861 0.15883 -0.46200
O 	O 	0.21100 0.85139 0.84117 -0.46500
O 	O 	0.82965 0.32203 0.33665 -0.49600
O 	O 	0.17035 0.67797 0.66335 -0.49400
O 	O 	0.67035 0.82203 0.16335 -0.49600
O 	O 	0.32965 0.17797 0.83665 -0.49400
C 	C 	0.85427 0.48579 0.35687 0.37700
C 	C 	0.14573 0.51417 0.64313 0.37700
C 	C 	0.64573 0.98579 0.14313 0.37700
C 	C 	0.35427 0.01417 0.85687 0.37800
O 	O 	0.71395 0.31928 0.35207 -0.46800
O 	O 	0.28605 0.68072 0.64793 -0.46700
O 	O 	0.78605 0.81928 0.14793 -0.46800
O 	O 	0.21395 0.18072 0.85207 -0.46700
O 	O 	0.67247 0.14287 0.17436 -0.49200
O 	O 	0.32753 0.85713 0.82564 -0.49400
O 	O 	0.82753 0.64287 0.32564 -0.49100
O 	O 	0.17247 0.35713 0.67436 -0.49300
C 	C 	0.70188 0.48752 0.37618 0.33100
C 	C 	0.29783 0.51263 0.62347 0.33100
C 	C 	0.79812 0.98752 0.12382 0.33100
C 	C 	0.20217 0.01263 0.87653 0.33200
O 	O 	0.73653 0.47865 0.19168 -0.60200
O 	O 	0.26347 0.52135 0.80832 -0.60300
O 	O 	0.76347 0.97865 0.30832 -0.60200
O 	O 	0.23653 0.02135 0.69168 -0.60200
V 	V 	0.75250 0.20617 0.26082 1.79600
V 	V 	0.24750 0.79383 0.73918 1.79600
V 	V 	0.74750 0.70617 0.23918 1.79600
V 	V 	0.25250 0.29383 0.76082 1.79600
C 	C 	0.82775 0.99663 0.05177 -0.08200
C 	C 	0.17324 0.00748 0.94952 -0.08400
C 	C 	0.67225 0.49662 0.44823 -0.08400
C 	C 	0.32676 0.50748 0.55048 -0.08400
C 	C 	0.82227 0.02680 0.89048 -0.06200
C 	C 	0.17867 0.04900 0.11028 -0.06400
C 	C 	0.67773 0.52680 0.60952 -0.06300
C 	C 	0.32133 0.54906 0.38972 -0.06300
C 	C 	0.79354 0.01318 0.95843 0.01800
C 	C 	0.20727 0.03678 0.04211 0.02000
C 	C 	0.70646 0.51318 0.54157 0.02000
C 	C 	0.29273 0.53684 0.45789 0.01900
C 	C 	0.89084 0.99451 0.07765 0.00400
C 	C 	0.11038 0.99282 0.92460 0.00300
C 	C 	0.60916 0.49451 0.42235 0.00500
C 	C 	0.38961 0.49279 0.57540 0.00400
C 	C 	0.92157 0.01376 0.01062 -0.01300
C 	C 	0.07960 0.01551 0.99136 -0.01400
C 	C 	0.57843 0.51376 0.48937 -0.01400
C 	C 	0.42040 0.51551 0.50864 -0.01400
C 	C 	0.88616 0.02466 0.91492 0.02200
C 	C 	0.11493 0.03709 0.08656 0.02500
C 	C 	0.61384 0.52466 0.58508 0.02400
C 	C 	0.38506 0.53711 0.41344 0.02400
C 	C 	0.98619 0.02270 0.03620 0.01000
C 	C 	0.01496 0.02019 0.96576 0.01000
C 	C 	0.51381 0.52269 0.46380 0.01000
C 	C 	0.48504 0.52019 0.53424 0.01000
C 	C 	0.97842 0.03271 0.87177 -0.04900
C 	C 	0.02267 0.04299 0.12987 -0.04700
C 	C 	0.52158 0.53271 0.62822 -0.04800
C 	C 	0.47732 0.54298 0.37012 -0.04800
C 	C 	0.91531 0.03775 0.84608 -0.01200
C 	C 	0.08575 0.05296 0.15530 -0.01300
C 	C 	0.58469 0.53775 0.65392 -0.01300
C 	C 	0.41424 0.55297 0.34470 -0.01300
H 	H 	0.08696 0.96491 0.85222 0.03900
H 	H 	0.91442 0.97442 0.15068 0.03800
H 	H 	0.41304 0.46483 0.64778 0.03900
H 	H 	0.58558 0.47442 0.34931 0.03800
C 	C 	0.41676 0.00685 0.91882 -0.10400
C 	C 	0.58324 0.99294 0.08119 -0.10400
C 	C 	0.08324 0.50685 0.58118 -0.10400
C 	C 	0.91676 0.49294 0.41881 -0.10400
C 	C 	0.46914 0.00218 0.97001 0.04100
C 	C 	0.53086 0.99740 0.03000 0.04100
C 	C 	0.03087 0.50218 0.52999 0.04100
C 	C 	0.96914 0.49740 0.47000 0.04100
C 	C 	0.88159 0.06192 0.74589 0.02300
C 	C 	0.88590 0.22835 0.70156 -0.05200
C 	C 	0.85571 0.25081 0.60650 -0.01600
C 	C 	0.82112 0.10748 0.55519 -0.03200
C 	C 	0.81693 0.94108 0.59864 -0.01400
C 	C 	0.84723 0.91764 0.69371 -0.05300
H 	H 	0.91265 0.34035 0.74065 0.04700
H 	H 	0.85916 0.37924 0.57261 0.03900
H 	H 	0.79777 0.12511 0.48174 0.05000
H 	H 	0.79042 0.83029 0.55839 0.04200
H 	H 	0.84407 0.78764 0.72658 0.04500
C 	C 	0.11941 0.08616 0.25489 0.02600
C 	C 	0.11263 0.25398 0.29623 -0.05400
C 	C 	0.14326 0.28549 0.39044 -0.01300
C 	C 	0.18075 0.14986 0.44395 -0.03700
C 	C 	0.18741 0.98203 0.40354 -0.01300
C 	C 	0.15666 0.94952 0.30933 -0.05600
H 	H 	0.08375 0.36027 0.25540 0.04800
H 	H 	0.13799 0.41514 0.42194 0.03800
H 	H 	0.20451 0.17475 0.51672 0.06100
H 	H 	0.21628 0.87724 0.44540 0.04000
H 	H 	0.16186 0.81856 0.27882 0.04500
C 	C 	0.61840 0.56192 0.75411 0.02400
C 	C 	0.61409 0.72835 0.79844 -0.05300
C 	C 	0.64429 0.75080 0.89350 -0.01600
C 	C 	0.67888 0.60748 0.94480 -0.03200
C 	C 	0.68307 0.44108 0.90136 -0.01400
C 	C 	0.65277 0.41764 0.80629 -0.05400
H 	H 	0.58734 0.84035 0.75935 0.04700
H 	H 	0.64083 0.87924 0.92739 0.03900
H 	H 	0.70223 0.62511 0.01825 0.05000
H 	H 	0.70959 0.33030 0.94161 0.04200
H 	H 	0.65593 0.28765 0.77341 0.04500
C 	C 	0.38059 0.58613 0.24511 0.02500
C 	C 	0.38738 0.75390 0.20373 -0.05400
C 	C 	0.35675 0.78538 0.10952 -0.01300
C 	C 	0.31925 0.64976 0.05605 -0.03800
C 	C 	0.31257 0.48198 0.09648 -0.01200
C 	C 	0.34331 0.44950 0.19069 -0.05500
H 	H 	0.41628 0.86018 0.24454 0.04800
H 	H 	0.36203 0.91499 0.07802 0.03800
H 	H 	0.29548 0.67462 0.98327 0.06100
H 	H 	0.28368 0.37720 0.05464 0.04000
H 	H 	0.33811 0.31858 0.22122 0.04500
H 	H 	0.25602 0.05136 0.06153 0.02600
H 	H 	0.74455 0.01555 0.93814 0.02700
H 	H 	0.24398 0.55145 0.43847 0.02600
H 	H 	0.75545 0.51555 0.56186 0.02600
H 	H 	0.79387 0.04023 0.81888 0.04800
H 	H 	0.20697 0.07207 0.18122 0.04900
H 	H 	0.70613 0.54023 0.68112 0.04900
H 	H 	0.29303 0.57216 0.31878 0.04800
H 	H 	0.99779 0.04743 0.81592 0.04800
H 	H 	0.00320 0.06032 0.18546 0.04800
H 	H 	0.50220 0.54745 0.68407 0.04800
H 	H 	0.49679 0.56031 0.31453 0.04800
