data_crystal

_cell_length_a 9.92559
_cell_length_b 10.76301
_cell_length_c 13.10227
_cell_angle_alpha 89.41901
_cell_angle_beta  71.36759
_cell_angle_gamma 89.54782

_symmetry_space_group_name_	'P 1'
_symmetry_space_group_name_H-M	'P 1'

loop_
_symmetry_equiv_pos_as_xyz
  x,y,z

loop_
_atom_site_label
_atom_site_type_symbol
_atom_site_fract_x
_atom_site_fract_y
_atom_site_fract_z
_atom_site_charge
C 	C 	0.50244 0.73945 0.48961 0.37600
C 	C 	0.37930 0.43311 0.81447 -0.15600
C 	C 	0.24351 0.88881 0.48918 -0.05600
C 	C 	0.42318 0.47966 0.70175 0.37100
C 	C 	0.11383 0.94711 0.53878 -0.01600
C 	C 	0.11013 0.05696 0.59408 -0.03400
C 	C 	0.23723 0.11434 0.58952 -0.05000
C 	C 	0.37004 0.06084 0.53110 0.03900
C 	C 	0.37203 0.93879 0.49649 0.06200
C 	C 	0.50224 0.87236 0.47235 -0.14900
C 	C 	0.63180 0.93598 0.44445 0.11800
C 	C 	0.44253 0.41935 0.97840 -0.04600
C 	C 	0.63128 0.06381 0.45658 0.09900
C 	C 	0.50028 0.12599 0.50235 -0.13700
C 	C 	0.79964 0.65464 0.64427 -0.15200
C 	C 	0.49926 0.25977 0.50322 0.37700
C 	C 	0.83713 0.72571 0.72063 0.16200
C 	C 	0.97710 0.72282 0.71967 -0.05800
C 	C 	0.07758 0.64972 0.64631 -0.05700
C 	C 	0.04135 0.57352 0.57254 0.02300
C 	C 	0.89732 0.57461 0.57204 0.10200
C 	C 	0.95864 0.43019 0.43023 0.03000
C 	C 	0.48283 0.41186 0.86579 0.02600
C 	C 	0.10145 0.42988 0.43060 -0.00400
C 	C 	0.57828 0.50293 0.29578 0.38600
C 	C 	0.80206 0.47114 0.00365 -0.17300
C 	C 	0.62443 0.49685 0.17811 -0.16900
C 	C 	0.23622 0.40721 0.87268 0.19800
C 	C 	0.19753 0.38736 0.98439 -0.17100
C 	C 	0.29796 0.39462 0.03816 0.15100
C 	C 	0.95703 0.62074 0.11117 0.01300
C 	C 	0.84824 0.11521 0.47291 -0.03000
C 	C 	0.60615 0.76160 0.83320 -0.02200
C 	C 	0.55044 0.44576 0.02425 -0.04200
C 	C 	0.08270 0.27273 0.83384 -0.02100
C 	C 	0.28234 0.23605 0.15638 -0.02000
C 	C 	0.59737 0.18871 0.74238 -0.02500
C 	C 	0.79455 0.86125 0.29379 -0.02700
C 	C 	0.69525 0.44160 0.95975 0.10800
C 	C 	0.73136 0.40262 0.85339 -0.13800
C 	C 	0.62510 0.37717 0.80914 0.13300
C 	C 	0.51818 0.48280 0.13054 0.04000
C 	C 	0.76835 0.49815 0.11348 0.20900
H 	H 	0.24094 0.80711 0.44272 0.06200
H 	H 	0.17949 0.37230 0.37423 0.03500
H 	H 	0.91155 0.46982 0.95328 0.09600
H 	H 	0.40952 0.50159 0.17768 0.05100
H 	H 	0.08880 0.36539 0.03042 0.08800
H 	H 	0.02393 0.64667 0.16105 0.03100
H 	H 	0.88979 0.70238 0.10620 0.03000
H 	H 	0.03036 0.59896 0.02975 0.02500
H 	H 	0.82780 0.03161 0.52630 0.04900
H 	H 	0.84040 0.19858 0.52349 0.05700
H 	H 	0.95921 0.10909 0.41778 0.05000
H 	H 	0.01645 0.90512 0.53602 0.03700
H 	H 	0.60550 0.66151 0.85532 0.04700
H 	H 	0.54500 0.77796 0.77654 0.04600
H 	H 	0.55077 0.81276 0.90811 0.04400
H 	H 	0.00065 0.26116 0.91388 0.03300
H 	H 	0.16768 0.20108 0.82349 0.03400
H 	H 	0.02997 0.25505 0.77270 0.03600
H 	H 	0.39843 0.21580 0.12579 0.04000
H 	H 	0.22483 0.17751 0.11432 0.03400
H 	H 	0.24374 0.20954 0.24283 0.04100
H 	H 	0.48037 0.19363 0.75916 0.04200
H 	H 	0.00925 0.10011 0.63679 0.03300
H 	H 	0.64018 0.12641 0.67293 0.04900
H 	H 	0.62275 0.14498 0.81160 0.04100
H 	H 	0.79211 0.95198 0.25272 0.05000
H 	H 	0.72218 0.79389 0.27417 0.04800
H 	H 	0.90464 0.82499 0.26197 0.04800
H 	H 	0.23059 0.20053 0.63166 0.05700
H 	H 	0.92974 0.37322 0.37300 0.03500
H 	H 	0.69542 0.66743 0.64124 0.08800
H 	H 	0.00965 0.78081 0.77463 0.05200
H 	H 	0.18344 0.65877 0.64768 0.05400
H 	H 	0.84104 0.38858 0.80535 0.08500
N 	N 	0.85686 0.50120 0.50099 -0.23200
N 	N 	0.14245 0.50128 0.50102 -0.22200
O 	O 	0.38531 0.68322 0.50000 -0.45000
O 	O 	0.75644 0.12899 0.41031 -0.17100
O 	O 	0.74526 0.80910 0.79002 -0.20600
O 	O 	0.13733 0.39504 0.81907 -0.21400
O 	O 	0.25444 0.36362 0.14640 -0.20800
O 	O 	0.66021 0.30720 0.71612 -0.19400
O 	O 	0.76050 0.87401 0.40602 -0.17700
O 	O 	0.61464 0.68325 0.50001 -0.43000
O 	O 	0.32840 0.49995 0.65361 -0.44600
O 	O 	0.55773 0.49997 0.65362 -0.44800
O 	O 	0.38536 0.31675 0.49999 -0.44400
O 	O 	0.61469 0.31678 0.50000 -0.42400
O 	O 	0.44227 0.50003 0.34638 -0.46200
O 	O 	0.67160 0.50005 0.34639 -0.44400
O 	O 	0.87443 0.51671 0.15944 -0.20600
Zn	Zn	0.34688 0.49998 0.49999 1.22900
Zn	Zn	0.65312 0.50002 0.50001 1.23100
