data_crystal

_cell_length_a 10.70393
_cell_length_b 10.65259
_cell_length_c 16.84549
_cell_angle_alpha 99.21302
_cell_angle_beta  98.87513
_cell_angle_gamma 61.65225

_symmetry_space_group_name_	'P 1'
_symmetry_space_group_name_H-M	'P 1'

loop_
_symmetry_equiv_pos_as_xyz
  x,y,z

loop_
_atom_site_label
_atom_site_type_symbol
_atom_site_fract_x
_atom_site_fract_y
_atom_site_fract_z
_atom_site_charge
O 	O 	0.75122 0.49923 0.43517 -0.49600
O 	O 	0.47722 0.72760 0.43687 -0.52800
C 	C 	0.35609 0.77172 0.39789 0.46600
O 	O 	0.25865 0.74512 0.41147 -0.49800
O 	O 	0.29707 0.46724 0.39596 -0.49400
C 	C 	0.40648 0.37405 0.35755 0.29400
O 	O 	0.48883 0.25261 0.38779 -0.45600
O 	O 	0.72440 0.30239 0.42098 -0.55800
C 	C 	0.77316 0.37763 0.40047 0.48000
O 	O 	0.75210 0.50121 0.61219 -0.46000
O 	O 	0.47804 0.72944 0.60097 -0.50200
C 	C 	0.35110 0.78368 0.62415 0.41400
O 	O 	0.25953 0.74711 0.58849 -0.48600
O 	O 	0.29788 0.46908 0.56005 -0.54100
C 	C 	0.37045 0.34843 0.58743 0.43100
O 	O 	0.48972 0.25459 0.56481 -0.50400
O 	O 	0.72522 0.30423 0.58508 -0.52800
C 	C 	0.78328 0.37519 0.62730 0.41200
Cr	Cr	0.60834 0.61104 0.52043 1.54600
Cr	Cr	0.28765 0.60112 0.48935 1.53600
Cr	Cr	0.60404 0.28787 0.49028 1.53500
O 	O 	0.50001 0.50001 0.50002 -0.74700
C 	C 	0.37565 0.36140 0.27269 -0.03300
C 	C 	0.34958 0.34373 0.20146 -0.10000
C 	C 	0.73597 0.29443 0.19637 -0.01200
C 	C 	0.68686 0.43377 0.25485 0.03700
H 	H 	0.57588 0.50575 0.26925 0.02400
H 	H 	0.66450 0.25744 0.15668 0.06000
C 	C 	0.80627 0.35031 0.31821 -0.18700
C 	C 	0.85399 0.21168 0.26133 0.01200
C 	C 	0.95724 0.25251 0.23050 0.07500
C 	C 	0.90750 0.39042 0.28802 0.22300
C 	C 	0.79051 0.47461 0.22418 -0.06300
C 	C 	0.83852 0.33552 0.16700 -0.09300
H 	H 	0.88040 0.10517 0.27885 0.03300
H 	H 	0.06703 0.18632 0.21409 -0.08100
H 	H 	0.76420 0.58169 0.20756 0.08300
C 	C 	0.42084 0.77292 0.20530 -0.01000
C 	C 	0.31800 0.74131 0.24351 0.03000
H 	H 	0.31698 0.63684 0.23858 0.03300
H 	H 	0.50308 0.69661 0.16474 0.06800
C 	C 	0.34035 0.82554 0.32222 -0.16700
C 	C 	0.44491 0.85564 0.28567 0.00700
C 	C 	0.31722 0.99651 0.25938 0.10500
C 	C 	0.21438 0.96333 0.29752 0.16400
C 	C 	0.19111 0.88066 0.21804 -0.04900
C 	C 	0.29382 0.91253 0.18058 -0.06200
H 	H 	0.54939 0.84349 0.31572 0.06500
H 	H 	0.31692 0.10178 0.26415 -0.05900
H 	H 	0.12899 0.02735 0.33773 -0.12200
H 	H 	0.08581 0.89201 0.18991 0.06400
C 	C 	0.45932 0.26073 0.77678 0.07700
C 	C 	0.40376 0.40198 0.74112 0.05500
C 	C 	0.34157 0.33921 0.66617 -0.14000
C 	C 	0.39882 0.19692 0.70253 -0.01500
C 	C 	0.25639 0.25903 0.74106 -0.00600
C 	C 	0.19884 0.40171 0.70312 -0.00300
C 	C 	0.26140 0.46404 0.77924 -0.01200
C 	C 	0.32055 0.32160 0.81547 -0.15400
H 	H 	0.45400 0.08811 0.67039 0.00900
H 	H 	0.19503 0.20025 0.74329 -0.02100
H 	H 	0.09145 0.45838 0.67105 0.00100
H 	H 	0.20572 0.57199 0.81217 0.01800
C 	C 	0.85555 0.32431 0.70379 -0.07600
C 	C 	0.90044 0.29050 0.77150 -0.00200
C 	C 	0.31652 0.85395 0.70341 -0.06900
C 	C 	0.27955 0.89877 0.77069 -0.00800
O 	O 	0.17183 0.91388 0.05751 -0.32500
O 	O 	0.94069 0.18605 0.05473 -0.39700
C 	C 	0.88627 0.31381 0.08823 0.42400
O 	O 	0.92047 0.40572 0.07501 -0.34700
O 	O 	0.19669 0.37046 0.08412 -0.45300
C 	C 	0.32189 0.30286 0.11919 0.41000
O 	O 	0.41299 0.18075 0.09161 -0.43100
O 	O 	0.36662 0.94313 0.06576 -0.32400
C 	C 	0.25909 0.95620 0.09953 0.33600
O 	O 	0.16051 0.90633 0.87921 -0.45200
O 	O 	0.93019 0.17905 0.88945 -0.47100
C 	C 	0.94425 0.27472 0.85584 0.31600
O 	O 	0.90914 0.39817 0.89671 -0.43200
O 	O 	0.18619 0.36346 0.91883 -0.61900
C 	C 	0.30877 0.29429 0.89317 0.44300
O 	O 	0.40167 0.17320 0.91331 -0.55600
O 	O 	0.35612 0.93613 0.90047 -0.46200
C 	C 	0.24555 0.94441 0.85285 0.32300
Cr	Cr	0.05402 0.05270 0.97085 1.37300
Cr	Cr	0.05923 0.37512 0.99339 1.42600
Cr	Cr	0.37495 0.06120 0.99234 1.41900
O 	O 	0.16274 0.16301 0.98553 -0.93700
C 	C 	0.49091 0.48181 0.74462 -0.12000
C 	C 	0.51481 0.54529 0.83075 -0.00200
C 	C 	0.60356 0.62416 0.83427 -0.17700
H 	H 	0.70391 0.55583 0.80620 0.09800
H 	H 	0.54702 0.72033 0.80139 0.09600
H 	H 	0.62839 0.65738 0.89816 0.04900
H 	H 	0.41072 0.62138 0.85440 0.02400
H 	H 	0.57137 0.45830 0.87111 0.03100
H 	H 	0.59376 0.40453 0.72194 0.07900
H 	H 	0.43512 0.56710 0.70409 0.06600
N 	N 	0.60410 0.18398 0.81447 -0.01700
O 	O 	0.70896 0.11217 0.76911 -0.14400
O 	O 	0.63180 0.20155 0.89220 -0.18700
C 	C 	0.00807 0.43679 0.34437 -0.42400
C 	C 	0.09983 0.32639 0.40577 0.12200
C 	C 	0.07093 0.38329 0.49354 -0.38300
H 	H 	0.06338 0.49178 0.50770 0.06900
H 	H 	0.97325 0.38659 0.50899 0.18900
H 	H 	0.15644 0.30610 0.53263 0.08500
H 	H 	0.08086 0.23230 0.39403 -0.05000
H 	H 	0.21443 0.28590 0.39937 0.00200
H 	H 	0.07835 0.44669 0.30641 0.10900
H 	H 	0.94432 0.54483 0.37532 0.20600
