data_crystal

_cell_length_a 12.77881
_cell_length_b 12.77881
_cell_length_c 26.98062
_cell_angle_alpha 90.00000
_cell_angle_beta  90.00000
_cell_angle_gamma 120.00019

_symmetry_space_group_name_	'P 1'
_symmetry_space_group_name_H-M	'P 1'

loop_
_symmetry_equiv_pos_as_xyz
  x,y,z

loop_
_atom_site_label
_atom_site_type_symbol
_atom_site_fract_x
_atom_site_fract_y
_atom_site_fract_z
_atom_site_charge
O 	O 	0.46087 0.12093 0.80524 -0.48300
O 	O 	0.66006 0.53913 0.69476 -0.48800
O 	O 	0.87907 0.33994 0.80524 -0.48300
O 	O 	0.46087 0.12093 0.69476 -0.48800
O 	O 	0.66006 0.53913 0.80524 -0.48300
O 	O 	0.87907 0.33994 0.69476 -0.48800
O 	O 	0.12093 0.46087 0.30524 -0.48300
O 	O 	0.53913 0.66006 0.19476 -0.48800
O 	O 	0.33994 0.87907 0.30524 -0.48300
O 	O 	0.12093 0.46087 0.19476 -0.48900
O 	O 	0.53913 0.66006 0.30524 -0.48200
O 	O 	0.33994 0.87907 0.19476 -0.48700
O 	O 	0.49891 0.35047 0.80187 -0.52700
O 	O 	0.85156 0.50109 0.69813 -0.52800
O 	O 	0.64953 0.14844 0.80187 -0.52700
O 	O 	0.49891 0.35047 0.69813 -0.52800
O 	O 	0.85156 0.50109 0.80187 -0.52700
O 	O 	0.64953 0.14844 0.69813 -0.52800
O 	O 	0.35047 0.49891 0.30187 -0.52700
O 	O 	0.50109 0.85156 0.19813 -0.52800
O 	O 	0.14844 0.64953 0.30187 -0.52700
O 	O 	0.35047 0.49891 0.19813 -0.52800
O 	O 	0.50109 0.85156 0.30187 -0.52700
O 	O 	0.14844 0.64953 0.19813 -0.52800
C 	C 	0.55738 0.45562 0.82181 0.39400
C 	C 	0.89127 0.43754 0.67664 0.39800
C 	C 	0.54438 0.10176 0.82181 0.39400
C 	C 	0.56246 0.45373 0.67664 0.39800
C 	C 	0.89824 0.44262 0.82181 0.39400
C 	C 	0.54627 0.10873 0.67664 0.39800
C 	C 	0.45562 0.55738 0.32181 0.39400
C 	C 	0.43754 0.89127 0.17664 0.39800
C 	C 	0.10176 0.54438 0.32181 0.39400
C 	C 	0.45373 0.56246 0.17664 0.39800
C 	C 	0.44262 0.89824 0.32181 0.39400
C 	C 	0.10873 0.54627 0.17664 0.39800
C 	C 	0.02211 0.52844 0.97032 -0.00300
C 	C 	0.53495 0.04269 0.52165 -0.00400
C 	C 	0.47156 0.49367 0.97032 -0.00200
C 	C 	0.95731 0.49226 0.52165 -0.00400
C 	C 	0.50633 0.97789 0.97032 -0.00300
C 	C 	0.50774 0.46505 0.52165 -0.00400
C 	C 	0.52844 0.02211 0.47031 -0.00100
C 	C 	0.04269 0.53495 0.02165 -0.00300
C 	C 	0.49367 0.47156 0.47031 -0.00100
C 	C 	0.49226 0.95731 0.02165 -0.00300
C 	C 	0.97789 0.50633 0.47031 -0.00100
C 	C 	0.46505 0.50774 0.02165 -0.00300
C 	C 	0.91072 0.63773 0.98083 -0.00200
C 	C 	0.65132 0.93882 0.53241 -0.00800
C 	C 	0.36227 0.27300 0.98083 -0.00100
C 	C 	0.06118 0.71251 0.53241 -0.00800
C 	C 	0.72700 0.08928 0.98083 -0.00100
C 	C 	0.28749 0.34868 0.53241 -0.00800
C 	C 	0.63773 0.91072 0.48083 -0.00100
C 	C 	0.93882 0.65132 0.03241 -0.00700
C 	C 	0.27300 0.36227 0.48083 -0.00100
C 	C 	0.71251 0.06118 0.03241 -0.00700
C 	C 	0.08928 0.72700 0.48083 -0.00100
C 	C 	0.34868 0.28749 0.03241 -0.00700
C 	C 	0.92455 0.55644 0.89917 -0.00100
C 	C 	0.59371 0.01841 0.60465 0.00200
C 	C 	0.44356 0.36811 0.89917 -0.00100
C 	C 	0.98159 0.57530 0.60465 0.00200
C 	C 	0.63189 0.07545 0.89917 -0.00100
C 	C 	0.42470 0.40629 0.60465 0.00100
C 	C 	0.55644 0.92455 0.39917 -0.00100
C 	C 	0.01842 0.59371 0.10465 0.00200
C 	C 	0.36811 0.44356 0.39917 -0.00100
C 	C 	0.57530 0.98159 0.10465 0.00200
C 	C 	0.07545 0.63189 0.39917 -0.00100
C 	C 	0.40629 0.42470 0.10465 0.00100
C 	C 	0.07747 0.53634 0.12416 -0.11400
C 	C 	0.48655 0.95752 0.37005 -0.11000
C 	C 	0.46365 0.54112 0.12416 -0.11400
C 	C 	0.04248 0.52903 0.37005 -0.11000
C 	C 	0.45887 0.92253 0.12416 -0.11400
C 	C 	0.47097 0.51345 0.37005 -0.11100
C 	C 	0.53634 0.07747 0.62416 -0.11400
C 	C 	0.95752 0.48655 0.87005 -0.11000
C 	C 	0.54112 0.46365 0.62416 -0.11400
C 	C 	0.52903 0.04248 0.87005 -0.11000
C 	C 	0.92253 0.45887 0.62416 -0.11400
C 	C 	0.51345 0.47097 0.87005 -0.11000
H 	H 	0.98846 0.63738 0.13063 0.02700
H 	H 	0.58881 0.87002 0.38199 0.03800
H 	H 	0.36261 0.35107 0.13063 0.02700
H 	H 	0.12997 0.71879 0.38199 0.03800
H 	H 	0.64893 0.01154 0.13063 0.02700
H 	H 	0.28121 0.41118 0.38199 0.03800
H 	H 	0.63738 0.98846 0.63063 0.02700
H 	H 	0.87003 0.58882 0.88199 0.03900
H 	H 	0.35107 0.36261 0.63063 0.02700
H 	H 	0.71879 0.12997 0.88199 0.03900
H 	H 	0.01154 0.64893 0.63063 0.02700
H 	H 	0.41118 0.28121 0.88199 0.03900
C 	C 	0.95319 0.57616 0.94993 -0.01100
C 	C 	0.59316 0.99863 0.55313 -0.01200
C 	C 	0.42384 0.37703 0.94993 -0.01200
C 	C 	0.00137 0.59453 0.55313 -0.01200
C 	C 	0.62297 0.04681 0.94993 -0.01100
C 	C 	0.40547 0.40684 0.55313 -0.01200
C 	C 	0.57616 0.95319 0.44993 -0.01200
C 	C 	0.99863 0.59316 0.05313 -0.01300
C 	C 	0.37703 0.42384 0.44993 -0.01200
C 	C 	0.59453 0.00137 0.05313 -0.01300
C 	C 	0.04681 0.62297 0.44993 -0.01200
C 	C 	0.40684 0.40547 0.05313 -0.01200
Cr	Cr	0.48763 0.24118 0.75000 1.54100
Cr	Cr	0.75355 0.51237 0.75000 1.54100
Cr	Cr	0.75882 0.24645 0.75000 1.54100
Cr	Cr	0.24118 0.48763 0.25000 1.54100
Cr	Cr	0.51237 0.75355 0.25000 1.54100
Cr	Cr	0.24645 0.75882 0.25000 1.54100
O 	O 	0.66667 0.33333 0.75000 -0.73600
O 	O 	0.33333 0.66667 0.25000 -0.73600
C 	C 	0.03297 0.44758 0.88968 -0.00500
C 	C 	0.48211 0.12318 0.59253 -0.00500
C 	C 	0.55242 0.58539 0.88968 -0.00400
C 	C 	0.87682 0.35892 0.59253 -0.00500
C 	C 	0.41461 0.96703 0.88968 -0.00500
C 	C 	0.64107 0.51789 0.59253 -0.00500
C 	C 	0.44758 0.03297 0.38968 -0.00400
C 	C 	0.12318 0.48211 0.09253 -0.00400
C 	C 	0.58539 0.55242 0.38968 -0.00400
C 	C 	0.35892 0.87682 0.09253 -0.00500
C 	C 	0.96703 0.41461 0.38969 -0.00400
C 	C 	0.51789 0.64108 0.09253 -0.00500
C 	C 	0.06613 0.46853 0.93955 0.00200
C 	C 	0.48145 0.10690 0.54165 0.00400
C 	C 	0.53147 0.59760 0.93955 0.00200
C 	C 	0.89310 0.37455 0.54165 0.00400
C 	C 	0.40240 0.93387 0.93955 0.00200
C 	C 	0.62545 0.51855 0.54165 0.00400
C 	C 	0.46853 0.06613 0.43955 0.00100
C 	C 	0.10690 0.48145 0.04165 0.00300
C 	C 	0.59760 0.53147 0.43955 0.00100
C 	C 	0.37455 0.89310 0.04165 0.00300
C 	C 	0.93387 0.40240 0.43955 0.00100
C 	C 	0.51855 0.62545 0.04165 0.00300
C 	C 	0.15255 0.42595 0.01072 -0.04200
C 	C 	0.42145 0.13450 0.45991 -0.04000
C 	C 	0.57405 0.72659 0.01072 -0.04200
C 	C 	0.86550 0.28695 0.45991 -0.04000
C 	C 	0.27340 0.84745 0.01072 -0.04200
C 	C 	0.71305 0.57855 0.45991 -0.03900
C 	C 	0.42596 0.15255 0.51072 -0.04300
C 	C 	0.13450 0.42145 0.95991 -0.04100
C 	C 	0.72659 0.57405 0.51072 -0.04300
C 	C 	0.28695 0.86550 0.95991 -0.04100
C 	C 	0.84745 0.27341 0.51072 -0.04300
C 	C 	0.57855 0.71305 0.95991 -0.04000
H 	H 	0.19815 0.38186 0.02613 0.04100
H 	H 	0.37517 0.16824 0.43692 0.03600
H 	H 	0.61814 0.81629 0.02613 0.04100
H 	H 	0.83176 0.20693 0.43692 0.03600
H 	H 	0.18371 0.80185 0.02613 0.04100
H 	H 	0.79307 0.62483 0.43692 0.03600
H 	H 	0.38186 0.19815 0.52613 0.04100
H 	H 	0.16824 0.37517 0.93692 0.03600
H 	H 	0.81629 0.61814 0.52613 0.04100
H 	H 	0.20693 0.83176 0.93692 0.03600
H 	H 	0.80185 0.18371 0.52614 0.04100
H 	H 	0.62483 0.79307 0.93692 0.03600
C 	C 	0.91075 0.73226 0.06479 -0.05000
C 	C 	0.79110 0.65901 0.09232 -0.14900
H 	H 	0.76846 0.72143 0.11197 0.05600
H 	H 	0.71765 0.60301 0.06594 0.06400
H 	H 	0.79623 0.59767 0.12000 0.05800
H 	H 	0.98506 0.78448 0.09147 0.02900
H 	H 	0.90854 0.80460 0.04299 0.03100
C 	C 	0.68348 0.83086 0.45929 -0.06100
C 	C 	0.80329 0.90527 0.43216 -0.13800
H 	H 	0.87387 0.96625 0.45867 0.04700
H 	H 	0.83133 0.84388 0.41532 0.04700
H 	H 	0.79558 0.96073 0.40231 0.04900
H 	H 	0.69495 0.77582 0.48792 0.04200
H 	H 	0.61481 0.76148 0.43454 0.04600
C 	C 	0.26774 0.17849 0.06479 -0.05000
C 	C 	0.34099 0.13209 0.09232 -0.14900
H 	H 	0.27857 0.04702 0.11197 0.05600
H 	H 	0.39699 0.11464 0.06594 0.06400
H 	H 	0.40232 0.19856 0.12000 0.05800
H 	H 	0.21552 0.20057 0.09147 0.02900
H 	H 	0.19540 0.10394 0.04299 0.03100
C 	C 	0.16914 0.85262 0.45929 -0.06100
C 	C 	0.09473 0.89802 0.43216 -0.13700
H 	H 	0.03378 0.90766 0.45868 0.04700
H 	H 	0.15612 0.98743 0.41530 0.04700
H 	H 	0.03924 0.83483 0.40232 0.04900
H 	H 	0.22418 0.91914 0.48791 0.04200
H 	H 	0.23852 0.85333 0.43454 0.04600
C 	C 	0.82151 0.08925 0.06479 -0.05000
C 	C 	0.86791 0.20890 0.09232 -0.14900
H 	H 	0.88536 0.28235 0.06594 0.06400
H 	H 	0.80144 0.20377 0.12000 0.05800
H 	H 	0.95297 0.23154 0.11197 0.05600
H 	H 	0.79943 0.01494 0.09147 0.02900
H 	H 	0.89606 0.09146 0.04299 0.03100
C 	C 	0.14738 0.31652 0.45929 -0.06100
C 	C 	0.10198 0.19671 0.43216 -0.13700
H 	H 	0.09234 0.12612 0.45867 0.04700
H 	H 	0.01257 0.16869 0.41530 0.04700
H 	H 	0.16517 0.20441 0.40232 0.04900
H 	H 	0.08086 0.30504 0.48791 0.04200
H 	H 	0.14666 0.38518 0.43454 0.04600
C 	C 	0.73226 0.91075 0.56479 -0.05000
C 	C 	0.65902 0.79110 0.59232 -0.14900
H 	H 	0.59768 0.79623 0.62000 0.05800
H 	H 	0.60301 0.71765 0.56594 0.06400
H 	H 	0.72144 0.76846 0.61197 0.05600
H 	H 	0.80461 0.90854 0.54299 0.03100
H 	H 	0.78448 0.98506 0.59147 0.02900
C 	C 	0.83086 0.68348 0.95929 -0.06100
C 	C 	0.90527 0.80329 0.93216 -0.13800
H 	H 	0.96076 0.79559 0.90232 0.04900
H 	H 	0.84388 0.83131 0.91531 0.04700
H 	H 	0.96622 0.87388 0.95868 0.04700
H 	H 	0.76148 0.61481 0.93454 0.04600
H 	H 	0.77582 0.69495 0.98791 0.04200
C 	C 	0.17849 0.26774 0.56479 -0.05000
C 	C 	0.13209 0.34098 0.59232 -0.14900
H 	H 	0.19855 0.40232 0.62000 0.05800
H 	H 	0.11464 0.39699 0.56594 0.06400
H 	H 	0.04702 0.27856 0.61197 0.05600
H 	H 	0.10394 0.19539 0.54299 0.03100
H 	H 	0.20058 0.21552 0.59147 0.02900
C 	C 	0.85262 0.16914 0.95929 -0.06100
C 	C 	0.89802 0.09472 0.93216 -0.13800
H 	H 	0.83483 0.03924 0.90232 0.04900
H 	H 	0.98743 0.15612 0.91531 0.04700
H 	H 	0.90766 0.03378 0.95868 0.04700
H 	H 	0.85333 0.23852 0.93454 0.04600
H 	H 	0.91914 0.22418 0.98791 0.04200
C 	C 	0.08925 0.82151 0.56479 -0.05000
C 	C 	0.20890 0.86791 0.59232 -0.14900
H 	H 	0.20377 0.80145 0.62000 0.05800
H 	H 	0.28235 0.88536 0.56594 0.06400
H 	H 	0.23154 0.95298 0.61197 0.05600
H 	H 	0.09146 0.89606 0.54299 0.03100
H 	H 	0.01494 0.79943 0.59147 0.02900
C 	C 	0.31652 0.14738 0.95929 -0.06100
C 	C 	0.19671 0.10198 0.93216 -0.13800
H 	H 	0.20441 0.16517 0.90232 0.04900
H 	H 	0.16869 0.01257 0.91531 0.04700
H 	H 	0.12612 0.09234 0.95868 0.04700
H 	H 	0.38518 0.14666 0.93454 0.04600
H 	H 	0.30504 0.08086 0.98791 0.04200
H 	H 	0.17384 0.44200 0.10753 0.03900
H 	H 	0.39486 0.05979 0.36701 0.03300
H 	H 	0.55800 0.73184 0.10753 0.04000
H 	H 	0.94022 0.33507 0.36701 0.03300
H 	H 	0.26816 0.82616 0.10753 0.03900
H 	H 	0.66493 0.60514 0.36701 0.03300
H 	H 	0.44200 0.17384 0.60753 0.04000
H 	H 	0.05978 0.39486 0.86701 0.03300
H 	H 	0.73184 0.55800 0.60753 0.04000
H 	H 	0.33507 0.94022 0.86701 0.03300
H 	H 	0.82616 0.26816 0.60753 0.04000
H 	H 	0.60514 0.66493 0.86701 0.03300
