data_crystal

_cell_length_a 19.56361
_cell_length_b 11.24795
_cell_length_c 18.71520
_cell_angle_alpha 90.01524
_cell_angle_beta  90.09857
_cell_angle_gamma 89.99331

_symmetry_space_group_name_	'P 1'
_symmetry_space_group_name_H-M	'P 1'

loop_
_symmetry_equiv_pos_as_xyz
  x,y,z

loop_
_atom_site_label
_atom_site_type_symbol
_atom_site_fract_x
_atom_site_fract_y
_atom_site_fract_z
_atom_site_charge
C 	C 	0.27420 0.04094 0.85527 0.39000
C 	C 	0.69327 0.52715 0.95719 -0.05500
C 	C 	0.22724 0.54547 0.35335 0.35000
C 	C 	0.46825 0.82296 0.64500 0.35100
C 	C 	0.52968 0.82294 0.35367 0.35300
C 	C 	0.96825 0.32296 0.64500 0.35400
C 	C 	0.02968 0.32294 0.35367 0.35200
C 	C 	0.26136 0.64144 0.64315 0.35000
C 	C 	0.73960 0.63863 0.35570 0.34600
C 	C 	0.76136 0.14144 0.64315 0.34700
C 	C 	0.23960 0.13863 0.35570 0.34300
C 	C 	0.48062 0.90827 0.03616 -0.00700
C 	C 	0.80673 0.02712 0.04278 -0.02000
C 	C 	0.51940 0.90826 0.96387 -0.00700
C 	C 	0.98062 0.40827 0.03616 0.00000
C 	C 	0.01940 0.40826 0.96387 -0.01100
C 	C 	0.43159 0.80936 0.00882 -0.04300
C 	C 	0.56842 0.80931 0.99118 -0.04300
C 	C 	0.93159 0.30936 0.00882 -0.04500
C 	C 	0.06842 0.30931 0.99118 -0.03800
C 	C 	0.46997 0.81294 0.93670 -0.07700
C 	C 	0.53004 0.81291 0.06330 -0.07700
C 	C 	0.96997 0.31294 0.93670 -0.07000
C 	C 	0.19328 0.02715 0.95720 -0.02000
C 	C 	0.03004 0.31291 0.06330 -0.08000
C 	C 	0.52963 0.59477 0.92653 -0.17300
C 	C 	0.47037 0.59480 0.07341 -0.17300
C 	C 	0.02963 0.09477 0.92653 -0.17800
C 	C 	0.97037 0.09480 0.07341 -0.17500
C 	C 	0.31723 0.55021 0.96276 -0.05100
C 	C 	0.68277 0.55021 0.03722 -0.05100
C 	C 	0.81723 0.05021 0.96276 -0.02400
C 	C 	0.18277 0.05021 0.03722 -0.02400
C 	C 	0.17671 0.51832 0.02415 -0.05100
C 	C 	0.82330 0.51828 0.97582 -0.05100
C 	C 	0.67671 0.01832 0.02415 -0.01700
C 	C 	0.72580 0.04093 0.14472 0.39000
C 	C 	0.32330 0.01828 0.97582 -0.01600
C 	C 	0.23518 0.70514 0.05498 -0.04900
C 	C 	0.76483 0.70515 0.94507 -0.04900
C 	C 	0.73518 0.20514 0.05498 -0.04400
C 	C 	0.26483 0.20515 0.94507 -0.04400
C 	C 	0.23677 0.57133 0.06863 -0.06200
C 	C 	0.76323 0.57134 0.93137 -0.06200
C 	C 	0.73677 0.07133 0.06863 -0.08100
C 	C 	0.26323 0.07134 0.93137 -0.08100
C 	C 	0.25235 0.60740 0.93099 -0.06000
C 	C 	0.77420 0.54094 0.85527 0.35100
C 	C 	0.74765 0.60737 0.06901 -0.06000
C 	C 	0.75235 0.10740 0.93099 -0.06900
C 	C 	0.24765 0.10737 0.06901 -0.06900
C 	C 	0.19199 0.52233 0.94309 -0.05200
C 	C 	0.80801 0.52228 0.05688 -0.05200
C 	C 	0.69198 0.02233 0.94309 -0.02400
C 	C 	0.30802 0.02228 0.05688 -0.02500
C 	C 	0.23545 0.72338 0.97332 -0.05400
C 	C 	0.76455 0.72336 0.02673 -0.05400
C 	C 	0.73545 0.22338 0.97332 -0.05500
C 	C 	0.22580 0.54093 0.14472 0.35000
C 	C 	0.26454 0.22336 0.02673 -0.05600
C 	C 	0.49399 0.69965 0.45789 -0.04500
C 	C 	0.49206 0.69940 0.53794 -0.05100
C 	C 	0.99399 0.19965 0.45789 -0.04400
C 	C 	0.99206 0.19940 0.53794 -0.04800
C 	C 	0.44272 0.81598 0.86254 0.28700
C 	C 	0.55729 0.81595 0.13746 0.28700
C 	C 	0.94272 0.31598 0.86254 0.28500
C 	C 	0.05729 0.31595 0.13746 0.28800
C 	C 	0.56752 0.88314 0.47294 -0.05800
C 	C 	0.51810 0.71456 0.96401 0.05300
C 	C 	0.43739 0.91022 0.52663 -0.09200
C 	C 	0.06753 0.38314 0.47294 -0.06000
C 	C 	0.93739 0.41022 0.52663 -0.05400
C 	C 	0.44538 0.90188 0.44461 -0.03800
C 	C 	0.55824 0.88178 0.55505 -0.05100
C 	C 	0.94538 0.40188 0.44461 -0.04800
C 	C 	0.05824 0.38178 0.55505 -0.05000
C 	C 	0.50823 0.82740 0.42993 -0.06600
C 	C 	0.48828 0.82834 0.56846 -0.05600
C 	C 	0.00822 0.32740 0.42993 -0.06400
C 	C 	0.48190 0.71458 0.03596 0.05300
C 	C 	0.98828 0.32834 0.56846 -0.06200
C 	C 	0.18448 0.66255 0.45694 -0.04900
C 	C 	0.82236 0.64218 0.53892 -0.04700
C 	C 	0.68448 0.16255 0.45694 -0.04900
C 	C 	0.32236 0.14218 0.53892 -0.04500
C 	C 	0.18623 0.66588 0.53697 -0.04800
C 	C 	0.82026 0.64558 0.45893 -0.04900
C 	C 	0.68622 0.16588 0.53697 -0.05200
C 	C 	0.32026 0.14558 0.45893 -0.05600
C 	C 	0.23936 0.46058 0.47265 -0.06200
C 	C 	0.01810 0.21456 0.96401 0.04900
C 	C 	0.74504 0.45420 0.52720 -0.05100
C 	C 	0.73936 0.96058 0.47265 -0.08200
C 	C 	0.24504 0.95420 0.52720 -0.07000
C 	C 	0.30931 0.63494 0.44237 -0.05000
C 	C 	0.69853 0.64921 0.55761 -0.04500
C 	C 	0.80931 0.13494 0.44237 -0.05000
C 	C 	0.19853 0.14921 0.55761 -0.04400
C 	C 	0.24065 0.57710 0.42900 -0.06000
C 	C 	0.76064 0.57119 0.56950 -0.06600
C 	C 	0.74065 0.07710 0.42900 -0.04500
C 	C 	0.98190 0.21458 0.03596 0.05800
C 	C 	0.26064 0.07119 0.56950 -0.05200
C 	C 	0.25315 0.60837 0.56694 -0.06300
C 	C 	0.74900 0.60380 0.43164 -0.05800
C 	C 	0.75314 0.10837 0.56694 -0.03800
C 	C 	0.24900 0.10380 0.43164 -0.03200
C 	C 	0.24507 0.47617 0.55444 -0.04700
C 	C 	0.74362 0.47182 0.44544 -0.05200
C 	C 	0.74507 0.97617 0.55444 -0.07200
C 	C 	0.24362 0.97182 0.44544 -0.07700
C 	C 	0.26144 0.64021 0.85424 0.34700
C 	C 	0.30673 0.52712 0.04278 -0.05500
C 	C 	0.73856 0.64018 0.14577 0.34700
C 	C 	0.76144 0.14021 0.85424 0.35400
C 	C 	0.23856 0.14018 0.14577 0.35400
C 	C 	0.31873 0.64391 0.52412 -0.05200
C 	C 	0.69210 0.66431 0.47584 -0.06300
C 	C 	0.81873 0.14391 0.52412 -0.05700
C 	C 	0.19210 0.16431 0.47584 -0.06600
C 	C 	0.27378 0.04232 0.64537 0.38400
C 	C 	0.72724 0.04547 0.35335 0.37900
C 	C 	0.77378 0.54232 0.64537 0.35400
Cr	Cr	0.22962 0.83604 0.74911 1.51400
Cr	Cr	0.61398 0.67659 0.25079 1.51200
Cr	Cr	0.88602 0.17659 0.74921 1.51300
Cr	Cr	0.11398 0.17659 0.25079 1.51300
Cr	Cr	0.77038 0.83604 0.25089 1.51400
Cr	Cr	0.72962 0.33604 0.74911 1.51500
Cr	Cr	0.27038 0.33604 0.25089 1.51500
Cr	Cr	0.38763 0.99068 0.75073 1.50400
Cr	Cr	0.61237 0.99068 0.24927 1.50400
Cr	Cr	0.88763 0.49068 0.75073 1.51200
Cr	Cr	0.11237 0.49068 0.24927 1.51200
Cr	Cr	0.38602 0.67659 0.74921 1.51200
H 	H 	0.37726 0.79662 0.02163 0.02900
H 	H 	0.71995 0.74655 0.91924 0.03000
H 	H 	0.19234 0.93023 0.54224 0.03400
H 	H 	0.28960 0.42642 0.57594 0.03100
H 	H 	0.69446 0.44005 0.42264 0.03300
H 	H 	0.78960 0.92642 0.57594 0.02800
H 	H 	0.19446 0.94005 0.42264 0.02900
H 	H 	0.31602 0.43392 0.05558 0.03800
H 	H 	0.68397 0.43396 0.94435 0.03800
H 	H 	0.81602 0.93392 0.05558 0.01300
H 	H 	0.18397 0.93396 0.94435 0.01300
H 	H 	0.34379 0.57799 0.07399 0.03600
H 	H 	0.78007 0.24651 0.08082 0.03000
H 	H 	0.65621 0.57808 0.92602 0.03600
H 	H 	0.84379 0.07800 0.07399 0.03200
H 	H 	0.15621 0.07808 0.92602 0.03200
H 	H 	0.36157 0.61028 0.95505 0.03900
H 	H 	0.63843 0.61029 0.04497 0.03900
H 	H 	0.86157 0.11027 0.95504 0.03500
H 	H 	0.13843 0.11028 0.04497 0.03500
H 	H 	0.32896 0.46523 0.93499 0.03200
H 	H 	0.67105 0.46523 0.06496 0.03200
H 	H 	0.82895 0.96523 0.93499 0.00700
H 	H 	0.21995 0.24655 0.91924 0.03000
H 	H 	0.17105 0.96522 0.06496 0.00600
H 	H 	0.66342 0.93102 0.04442 0.01000
H 	H 	0.33659 0.93099 0.95551 0.01000
H 	H 	0.16342 0.43103 0.04442 0.03300
H 	H 	0.83659 0.43099 0.95551 0.03300
H 	H 	0.70457 0.93361 0.92231 0.01100
H 	H 	0.29542 0.93356 0.07762 0.01100
H 	H 	0.20458 0.43361 0.92231 0.03400
H 	H 	0.79542 0.43356 0.07762 0.03400
H 	H 	0.47970 0.55329 0.91343 0.05800
H 	H 	0.27117 0.79281 0.95856 0.03500
H 	H 	0.55850 0.60722 0.87614 0.06500
H 	H 	0.55521 0.53084 0.96256 0.05300
H 	H 	0.52030 0.55331 0.08651 0.05800
H 	H 	0.44150 0.60728 0.12381 0.06500
H 	H 	0.44479 0.53087 0.03738 0.05300
H 	H 	0.97970 0.05329 0.91343 0.06500
H 	H 	0.05850 0.10722 0.87614 0.07000
H 	H 	0.05521 0.03084 0.96256 0.05900
H 	H 	0.02030 0.05330 0.08651 0.06200
H 	H 	0.94150 0.10728 0.12381 0.07000
H 	H 	0.72882 0.79280 0.04153 0.03500
H 	H 	0.94479 0.03087 0.03738 0.05900
H 	H 	0.77118 0.29281 0.95856 0.03600
H 	H 	0.22882 0.29279 0.04153 0.03600
H 	H 	0.18297 0.75074 0.95787 0.03900
H 	H 	0.81703 0.75068 0.04220 0.03900
H 	H 	0.68297 0.25074 0.95786 0.04100
H 	H 	0.62275 0.79654 0.97837 0.03000
H 	H 	0.31703 0.25068 0.04220 0.04100
H 	H 	0.62943 0.07121 0.03379 0.04100
H 	H 	0.37058 0.07116 0.96621 0.04100
H 	H 	0.12943 0.57121 0.03379 0.04000
H 	H 	0.87058 0.57116 0.96621 0.04000
H 	H 	0.14602 0.55377 0.91368 0.03700
H 	H 	0.85398 0.55369 0.08631 0.03800
H 	H 	0.64602 0.05377 0.91368 0.04100
H 	H 	0.35398 0.05369 0.08631 0.04100
H 	H 	0.53243 0.63262 0.44184 0.03800
H 	H 	0.87726 0.29662 0.02163 0.03100
H 	H 	0.45104 0.64155 0.55551 0.04100
H 	H 	0.03243 0.13262 0.44184 0.04000
H 	H 	0.95104 0.14155 0.55551 0.04300
H 	H 	0.44530 0.66766 0.43560 0.03400
H 	H 	0.53859 0.65434 0.55878 0.03500
H 	H 	0.94530 0.16766 0.43560 0.03600
H 	H 	0.03859 0.15435 0.55878 0.03600
H 	H 	0.60816 0.82514 0.45969 0.03800
H 	H 	0.38455 0.89863 0.54347 0.03900
H 	H 	0.10816 0.32514 0.45969 0.03900
H 	H 	0.12275 0.29653 0.97837 0.03000
H 	H 	0.88455 0.39863 0.54347 0.03600
H 	H 	0.59859 0.82837 0.58154 0.02900
H 	H 	0.39951 0.86186 0.41958 0.02500
H 	H 	0.09859 0.32837 0.58154 0.03100
H 	H 	0.89951 0.36186 0.41958 0.03100
H 	H 	0.46638 0.98986 0.06585 0.01800
H 	H 	0.53365 0.98984 0.93420 0.01800
H 	H 	0.96638 0.48986 0.06585 0.02600
H 	H 	0.03365 0.48984 0.93421 0.02700
H 	H 	0.45350 0.99143 0.42112 0.01800
H 	H 	0.18883 0.74714 0.07838 0.03300
H 	H 	0.56150 0.97313 0.57730 0.02200
H 	H 	0.95350 0.49143 0.42112 0.03100
H 	H 	0.06150 0.47313 0.57730 0.03000
H 	H 	0.45220 0.00187 0.54099 0.06800
H 	H 	0.57717 0.97481 0.45462 0.03200
H 	H 	0.95220 0.50187 0.54099 0.03700
H 	H 	0.07717 0.47480 0.45462 0.04100
H 	H 	0.13179 0.63821 0.44119 0.03600
H 	H 	0.87193 0.60962 0.55597 0.03800
H 	H 	0.63179 0.13821 0.44119 0.04600
H 	H 	0.81119 0.74712 0.92170 0.03400
H 	H 	0.37193 0.10962 0.55597 0.04400
H 	H 	0.19280 0.75151 0.43435 0.03300
H 	H 	0.82145 0.73445 0.56008 0.03200
H 	H 	0.69280 0.25151 0.43435 0.03400
H 	H 	0.32145 0.23444 0.56008 0.03400
H 	H 	0.17709 0.75619 0.55455 0.03800
H 	H 	0.83466 0.73679 0.44288 0.03600
H 	H 	0.67709 0.25619 0.55455 0.04100
H 	H 	0.33466 0.23680 0.44288 0.04100
H 	H 	0.14112 0.61742 0.55817 0.03300
H 	H 	0.68883 0.24714 0.07838 0.03600
H 	H 	0.86003 0.58798 0.43609 0.03400
H 	H 	0.64112 0.11742 0.55817 0.04500
H 	H 	0.36003 0.08798 0.43609 0.04700
H 	H 	0.68960 0.92928 0.46120 0.03900
H 	H 	0.27771 0.88046 0.54300 0.03700
H 	H 	0.18960 0.42928 0.46120 0.04000
H 	H 	0.77772 0.38046 0.54300 0.03600
H 	H 	0.69898 0.94205 0.58210 0.02900
H 	H 	0.28599 0.92329 0.41926 0.03000
H 	H 	0.19898 0.44205 0.58210 0.03000
H 	H 	0.31119 0.24712 0.92170 0.03600
H 	H 	0.78599 0.42329 0.41926 0.03100
H 	H 	0.34961 0.57792 0.41846 0.03200
H 	H 	0.65176 0.60752 0.58003 0.03000
H 	H 	0.84961 0.07792 0.41846 0.04000
H 	H 	0.15176 0.10752 0.58003 0.03600
H 	H 	0.31180 0.72364 0.41688 0.03000
H 	H 	0.70505 0.73602 0.58486 0.02800
H 	H 	0.81180 0.22364 0.41688 0.03100
H 	H 	0.20505 0.23602 0.58486 0.02900
H 	H 	0.33969 0.72940 0.54020 0.03600
H 	H 	0.28007 0.74651 0.08082 0.03000
H 	H 	0.70083 0.75472 0.46429 0.04000
H 	H 	0.83969 0.22940 0.54020 0.03700
H 	H 	0.20083 0.25472 0.46429 0.04000
H 	H 	0.35730 0.57611 0.53794 0.03800
H 	H 	0.64128 0.63401 0.45780 0.04200
H 	H 	0.85730 0.07611 0.53794 0.04600
H 	H 	0.14128 0.13401 0.45780 0.04700
H 	H 	0.27944 0.39931 0.45376 0.04200
H 	H 	0.69234 0.43023 0.54224 0.03800
H 	H 	0.77944 0.89931 0.45376 0.04200
O 	O 	0.21413 0.70857 0.82989 -0.47400
O 	O 	0.54283 0.71730 0.33162 -0.47400
O 	O 	0.95717 0.21730 0.66838 -0.47100
O 	O 	0.04283 0.21730 0.33162 -0.47200
O 	O 	0.32087 0.62489 0.67313 -0.50700
O 	O 	0.67913 0.62489 0.32687 -0.50600
O 	O 	0.82087 0.12489 0.67313 -0.50000
O 	O 	0.17913 0.12489 0.32687 -0.49900
O 	O 	0.33443 0.83443 0.74968 -0.72900
O 	O 	0.66557 0.83443 0.25032 -0.72800
O 	O 	0.83443 0.33443 0.74968 -0.72600
O 	O 	0.78587 0.70857 0.17011 -0.47400
O 	O 	0.16557 0.33443 0.25032 -0.72500
O 	O 	0.23605 0.95915 0.82527 -0.53900
O 	O 	0.76395 0.95915 0.17473 -0.53900
O 	O 	0.73605 0.45915 0.82527 -0.50900
O 	O 	0.26395 0.45915 0.17473 -0.50900
O 	O 	0.33210 0.07665 0.83231 -0.47200
O 	O 	0.66790 0.07665 0.16769 -0.47200
O 	O 	0.83210 0.57665 0.83231 -0.47800
O 	O 	0.16790 0.57665 0.16769 -0.47900
O 	O 	0.44650 0.91862 0.82624 -0.48300
O 	O 	0.71413 0.20857 0.82989 -0.47100
O 	O 	0.55350 0.91862 0.17376 -0.48400
O 	O 	0.94650 0.41862 0.82624 -0.47500
O 	O 	0.05350 0.41862 0.17376 -0.47800
O 	O 	0.45731 0.71583 0.83128 -0.44200
O 	O 	0.54269 0.71583 0.16872 -0.44200
O 	O 	0.95731 0.21583 0.83128 -0.43800
O 	O 	0.04269 0.21583 0.16872 -0.44000
O 	O 	0.32100 0.62352 0.82413 -0.51200
O 	O 	0.67900 0.62352 0.17587 -0.51200
O 	O 	0.82100 0.12352 0.82413 -0.50700
O 	O 	0.28587 0.20857 0.17011 -0.47100
O 	O 	0.17900 0.12352 0.17587 -0.50800
O 	O 	0.21399 0.71004 0.66700 -0.47300
O 	O 	0.78601 0.71004 0.33300 -0.47300
O 	O 	0.71399 0.21004 0.66700 -0.46700
O 	O 	0.28601 0.21004 0.33300 -0.46700
O 	O 	0.23592 0.96052 0.67426 -0.53900
O 	O 	0.76408 0.96052 0.32574 -0.53700
O 	O 	0.73592 0.46052 0.67426 -0.51200
O 	O 	0.26408 0.46052 0.32574 -0.51000
O 	O 	0.33196 0.07812 0.66941 -0.46800
O 	O 	0.44636 0.91999 0.67523 -0.51800
O 	O 	0.66804 0.07812 0.33059 -0.46600
O 	O 	0.83196 0.57812 0.66941 -0.47500
O 	O 	0.16804 0.57812 0.33059 -0.47500
O 	O 	0.55364 0.91999 0.32477 -0.51600
O 	O 	0.94636 0.41999 0.67523 -0.51000
O 	O 	0.05364 0.41999 0.32477 -0.51000
O 	O 	0.45717 0.71730 0.66838 -0.47300
