data_crystal

_cell_length_a 10.54668
_cell_length_b 9.99324
_cell_length_c 15.85862
_cell_angle_alpha 90.15702
_cell_angle_beta  92.44895
_cell_angle_gamma 89.89884

_symmetry_space_group_name_	'P 1'
_symmetry_space_group_name_H-M	'P 1'

loop_
_symmetry_equiv_pos_as_xyz
  x,y,z

loop_
_atom_site_label
_atom_site_type_symbol
_atom_site_fract_x
_atom_site_fract_y
_atom_site_fract_z
_atom_site_charge
C 	C 	0.87167 0.49950 0.49971 -0.09800
C 	C 	0.12830 0.49998 0.49986 -0.10000
C 	C 	0.26072 0.50005 0.49976 0.36700
C 	C 	0.73927 0.49987 0.49996 0.36600
C 	C 	0.49986 0.49983 0.33979 0.38800
C 	C 	0.50036 0.50039 0.66031 0.38600
C 	C 	0.49445 0.62945 0.95685 0.00600
C 	C 	0.52152 0.38047 0.04425 0.00700
C 	C 	0.49922 0.62753 0.04599 0.00700
C 	C 	0.51991 0.38216 0.95551 0.00700
C 	C 	0.50544 0.50617 0.91323 -0.05000
C 	C 	0.51075 0.50298 0.08780 -0.05000
C 	C 	0.50276 0.50535 0.82358 0.07900
C 	C 	0.50716 0.50058 0.17715 0.08100
C 	C 	0.50340 0.49961 0.25175 -0.15800
C 	C 	0.50132 0.50238 0.74869 -0.15500
C 	C 	0.59030 0.07168 0.54614 0.03100
C 	C 	0.40993 0.92831 0.45369 0.03000
C 	C 	0.41080 0.07178 0.45294 0.03100
C 	C 	0.59019 0.92819 0.54618 0.03000
C 	C 	0.06015 0.50117 0.42282 0.00300
C 	C 	0.93984 0.49700 0.57671 0.00000
C 	C 	0.92981 0.50130 0.42265 -0.00300
C 	C 	0.07015 0.49754 0.57690 0.00000
H 	H 	0.10791 0.50228 0.36366 0.03500
H 	H 	0.89207 0.49460 0.63584 0.03600
H 	H 	0.87470 0.50276 0.36337 0.03100
H 	H 	0.12523 0.49592 0.63619 0.03100
N 	N 	0.50000 0.85720 0.50000 -0.22600
N 	N 	0.50000 0.14280 0.50000 -0.22600
O 	O 	0.31677 0.61462 0.49999 -0.44900
O 	O 	0.68323 0.38538 0.50001 -0.44900
O 	O 	0.68323 0.61462 0.50001 -0.44900
O 	O 	0.31677 0.38538 0.49999 -0.45000
O 	O 	0.49998 0.61463 0.37802 -0.45400
O 	O 	0.50002 0.38537 0.62198 -0.45200
O 	O 	0.50002 0.61463 0.62198 -0.45400
O 	O 	0.49998 0.38537 0.37802 -0.45400
Zn	Zn	0.50000 0.65312 0.50000 1.23100
Zn	Zn	0.50000 0.34688 0.50000 1.23100
C 	C 	0.69267 0.14154 0.59509 -0.01400
C 	C 	0.81228 0.15511 0.56024 -0.02300
C 	C 	0.91787 0.19153 0.61122 -0.02700
C 	C 	0.90474 0.21733 0.69694 -0.03200
C 	C 	0.78612 0.20527 0.73199 -0.02600
C 	C 	0.68039 0.16617 0.68154 -0.03100
H 	H 	0.82440 0.13239 0.49425 0.03900
H 	H 	0.00995 0.19988 0.58432 0.03800
H 	H 	0.98667 0.24598 0.73627 0.03200
H 	H 	0.77759 0.22259 0.79880 0.02900
H 	H 	0.59033 0.14996 0.71017 0.04100
C 	C 	0.30758 0.85824 0.40491 -0.01300
C 	C 	0.32168 0.82758 0.31940 -0.03100
C 	C 	0.21694 0.78514 0.26914 -0.02400
C 	C 	0.09744 0.77635 0.30329 -0.03300
C 	C 	0.08251 0.80837 0.38800 -0.02500
C 	C 	0.18713 0.84811 0.43886 -0.02400
H 	H 	0.41260 0.84084 0.29133 0.04200
H 	H 	0.22699 0.76214 0.20316 0.03000
H 	H 	0.01630 0.74497 0.26410 0.03200
H 	H 	0.98985 0.80200 0.41417 0.03600
H 	H 	0.17388 0.87580 0.50393 0.03900
C 	C 	0.31477 0.14230 0.39883 -0.01400
C 	C 	0.19067 0.15739 0.42619 -0.02400
C 	C 	0.09323 0.19991 0.37008 -0.02500
C 	C 	0.11944 0.23070 0.28676 -0.03300
C 	C 	0.24272 0.21637 0.25904 -0.02400
C 	C 	0.33974 0.17004 0.31444 -0.03000
H 	H 	0.16905 0.13184 0.49024 0.04000
H 	H 	0.99743 0.20919 0.39127 0.03600
H 	H 	0.04404 0.26475 0.24355 0.03200
H 	H 	0.26224 0.23832 0.19412 0.03100
H 	H 	0.43356 0.15292 0.29131 0.04200
C 	C 	0.69068 0.85731 0.59624 -0.01400
C 	C 	0.67068 0.81943 0.67970 -0.03200
C 	C 	0.77099 0.76807 0.73035 -0.02400
C 	C 	0.89303 0.76165 0.69977 -0.03200
C 	C 	0.91429 0.80261 0.61748 -0.02600
C 	C 	0.81322 0.84799 0.56539 -0.02300
H 	H 	0.57790 0.83081 0.70558 0.04400
H 	H 	0.75483 0.73473 0.79365 0.03200
H 	H 	0.97096 0.72399 0.73957 0.03300
H 	H 	0.00879 0.79756 0.59381 0.03800
H 	H 	0.83062 0.88005 0.50183 0.03800
C 	C 	0.48938 0.75582 0.09817 -0.05800
C 	C 	0.61838 0.79848 0.13689 -0.14100
H 	H 	0.65646 0.72251 0.18215 0.06200
H 	H 	0.68793 0.81281 0.08720 0.05200
H 	H 	0.60770 0.89419 0.17157 0.05000
H 	H 	0.44716 0.84058 0.06234 0.03400
H 	H 	0.42331 0.74009 0.14947 0.04100
C 	C 	0.53171 0.25243 0.90515 -0.05900
C 	C 	0.40166 0.19136 0.88373 -0.14100
H 	H 	0.35111 0.16890 0.94198 0.05200
H 	H 	0.34309 0.26142 0.84413 0.06000
H 	H 	0.41343 0.09687 0.84787 0.05100
H 	H 	0.57955 0.27030 0.84561 0.04200
H 	H 	0.59400 0.17844 0.93838 0.03200
C 	C 	0.47462 0.76090 0.90807 -0.05900
C 	C 	0.59038 0.85338 0.91545 -0.14000
H 	H 	0.67958 0.79490 0.92361 0.05400
H 	H 	0.59532 0.91543 0.85770 0.05000
H 	H 	0.58348 0.92353 0.96925 0.04900
H 	H 	0.45319 0.74372 0.83993 0.04400
H 	H 	0.38883 0.81363 0.92921 0.03400
C 	C 	0.53667 0.24959 0.09354 -0.05900
C 	C 	0.67563 0.22432 0.11962 -0.14000
H 	H 	0.73383 0.21641 0.06311 0.05100
H 	H 	0.71306 0.30690 0.16050 0.05900
H 	H 	0.68421 0.12938 0.15555 0.04900
H 	H 	0.48017 0.25167 0.15082 0.04100
H 	H 	0.49830 0.16215 0.05794 0.03300
