data_crystal

_cell_length_a 28.12082
_cell_length_b 7.18005
_cell_length_c 17.30869
_cell_angle_alpha 89.99987
_cell_angle_beta  101.58011
_cell_angle_gamma 90.00044

_symmetry_space_group_name_	'P 1'
_symmetry_space_group_name_H-M	'P 1'

loop_
_symmetry_equiv_pos_as_xyz
  x,y,z

loop_
_atom_site_label
_atom_site_type_symbol
_atom_site_fract_x
_atom_site_fract_y
_atom_site_fract_z
_atom_site_charge
O 	O 	0.00070 0.43651 0.85792 -0.45500
O 	O 	0.99930 0.56349 0.14208 -0.45400
O 	O 	0.99930 0.93651 0.64208 -0.45300
O 	O 	0.00070 0.06349 0.35792 -0.45600
O 	O 	0.93008 0.76638 0.72189 -0.48700
O 	O 	0.06992 0.23362 0.27811 -0.47700
O 	O 	0.06992 0.26638 0.77811 -0.48600
O 	O 	0.93008 0.73362 0.22189 -0.47600
C 	C 	0.91044 0.59753 0.70796 0.36500
C 	C 	0.08955 0.40224 0.29140 0.36700
C 	C 	0.08956 0.09753 0.79203 0.36200
C 	C 	0.91045 0.90224 0.20860 0.36800
O 	O 	0.99618 0.76623 0.86231 -0.46800
O 	O 	0.00382 0.23377 0.13769 -0.46500
O 	O 	0.00382 0.26623 0.63769 -0.46600
O 	O 	0.99618 0.73377 0.36231 -0.46600
O 	O 	0.06587 0.93646 0.78350 -0.47000
O 	O 	0.93413 0.06354 0.21650 -0.48600
O 	O 	0.93413 0.43646 0.71650 -0.47200
O 	O 	0.06587 0.56354 0.28350 -0.48500
C 	C 	0.99918 0.59635 0.89461 0.32000
C 	C 	0.00072 0.40366 0.10536 0.31500
C 	C 	0.00082 0.09635 0.60539 0.31600
C 	C 	0.99928 0.90366 0.39464 0.31800
O 	O 	0.02279 0.60302 0.72398 -0.60800
O 	O 	0.97721 0.39698 0.27602 -0.61000
O 	O 	0.97721 0.10302 0.77602 -0.60900
O 	O 	0.02279 0.89698 0.22398 -0.60800
V 	V 	0.99577 0.87790 0.75483 1.79900
V 	V 	0.00423 0.12210 0.24517 1.79800
V 	V 	0.00423 0.37790 0.74517 1.79900
V 	V 	0.99577 0.62210 0.25483 1.79900
C 	C 	0.99524 0.08191 0.51796 -0.01100
C 	C 	0.00493 0.91820 0.48208 -0.00500
C 	C 	0.00476 0.58191 0.98204 -0.02000
C 	C 	0.99506 0.41820 0.01792 0.00300
C 	C 	0.68291 0.96024 0.02825 0.21000
C 	C 	0.31696 0.06907 0.97960 0.19400
C 	C 	0.31709 0.46028 0.47174 0.20800
C 	C 	0.68304 0.56910 0.52040 0.20800
O 	O 	0.71236 0.92850 0.97699 -0.19000
O 	O 	0.28660 0.05852 0.03069 -0.17800
O 	O 	0.28764 0.42853 0.52299 -0.18500
O 	O 	0.71340 0.55860 0.46931 -0.18400
N 	N 	0.70268 0.97282 0.10714 -0.17400
N 	N 	0.29788 0.08571 0.90059 -0.17300
N 	N 	0.29731 0.47287 0.39285 -0.17600
N 	N 	0.70212 0.58572 0.59941 -0.17500
C 	C 	0.67450 0.01465 0.16067 0.17600
C 	C 	0.32734 0.10470 0.84708 0.17700
C 	C 	0.32550 0.51472 0.33932 0.18000
C 	C 	0.67266 0.60471 0.65292 0.17900
C 	C 	0.78338 0.10568 0.15733 -0.09200
C 	C 	0.22145 0.25105 0.84966 -0.08700
C 	C 	0.21661 0.60571 0.34266 -0.09000
C 	C 	0.77855 0.75106 0.65036 -0.08800
C 	C 	0.83349 0.08796 0.18218 0.05000
C 	C 	0.17117 0.25335 0.82303 0.04800
C 	C 	0.16650 0.58798 0.31780 0.05100
C 	C 	0.82883 0.75336 0.67697 0.04900
C 	C 	0.82730 0.75463 0.15783 0.15500
C 	C 	0.16816 0.91954 0.84509 0.15500
C 	C 	0.17270 0.25466 0.34216 0.15500
C 	C 	0.83184 0.41954 0.65489 0.15300
C 	C 	0.77634 0.77222 0.13585 -0.01500
C 	C 	0.21919 0.91733 0.86929 -0.01200
C 	C 	0.22366 0.27226 0.36414 -0.01600
C 	C 	0.78081 0.41734 0.63069 -0.01500
C 	C 	0.75442 0.94955 0.13373 0.10900
C 	C 	0.24582 0.08459 0.87333 0.10100
C 	C 	0.24558 0.44959 0.36625 0.10700
C 	C 	0.75418 0.58460 0.62667 0.10600
C 	C 	0.60277 0.02511 0.05532 0.05600
C 	C 	0.39872 0.08334 0.95275 0.05900
C 	C 	0.39723 0.52515 0.44467 0.06800
C 	C 	0.60128 0.58335 0.54724 0.06600
C 	C 	0.63232 0.98254 0.00051 -0.11600
C 	C 	0.36789 0.06418 0.00757 -0.11500
C 	C 	0.36768 0.48257 0.49948 -0.13100
C 	C 	0.63211 0.56419 0.49243 -0.13000
C 	C 	0.61049 0.96246 0.92006 0.16500
C 	C 	0.38881 0.03851 0.08816 0.17100
C 	C 	0.38951 0.46248 0.57993 0.17700
C 	C 	0.61120 0.53850 0.41184 0.17700
C 	C 	0.62420 0.04253 0.13578 -0.05800
C 	C 	0.37814 0.10495 0.87214 -0.05900
C 	C 	0.37580 0.54258 0.36421 -0.06300
C 	C 	0.62186 0.60496 0.62786 -0.06100
C 	C 	0.85647 0.91354 0.18280 -0.13500
C 	C 	0.14354 0.08887 0.82003 -0.13600
C 	C 	0.14353 0.41356 0.31720 -0.13600
C 	C 	0.85646 0.58887 0.67997 -0.13400
C 	C 	0.48058 0.08560 0.92207 -0.03000
C 	C 	0.52209 0.08095 0.08597 -0.04300
C 	C 	0.51942 0.58562 0.57792 -0.03600
C 	C 	0.47791 0.58097 0.41402 -0.03500
C 	C 	0.47070 0.06900 0.05988 0.06400
C 	C 	0.53087 0.04443 0.94826 0.03800
C 	C 	0.52930 0.56901 0.44011 0.05500
C 	C 	0.46913 0.54445 0.55173 0.05600
C 	C 	0.45010 0.08009 0.97830 -0.03800
C 	C 	0.55183 0.05086 0.02981 -0.01700
C 	C 	0.54990 0.58011 0.52170 -0.03000
C 	C 	0.44817 0.55088 0.47019 -0.03100
C 	C 	0.45897 0.13044 0.84227 0.06100
C 	C 	0.54544 0.12039 0.16554 0.06600
C 	C 	0.54103 0.63046 0.65772 0.06400
C 	C 	0.45457 0.62041 0.33446 0.06300
C 	C 	0.40853 0.13264 0.81837 -0.04700
C 	C 	0.59546 0.09488 0.18939 -0.04800
C 	C 	0.59147 0.63266 0.68162 -0.04600
C 	C 	0.40454 0.59491 0.31060 -0.04400
O 	O 	0.30751 0.12237 0.76969 -0.18900
O 	O 	0.69510 0.02934 0.23786 -0.19200
O 	O 	0.69249 0.62236 0.73031 -0.18900
O 	O 	0.30490 0.52943 0.26214 -0.19100
C 	C 	0.56021 0.98503 0.89604 -0.12400
C 	C 	0.43944 0.03359 0.11226 -0.14100
C 	C 	0.43979 0.48505 0.60396 -0.13700
C 	C 	0.56056 0.53358 0.38774 -0.13600
H 	H 	0.15398 0.38519 0.80450 0.04900
H 	H 	0.85429 0.21232 0.20120 0.05000
H 	H 	0.84602 0.88521 0.69551 0.04900
H 	H 	0.14571 0.71232 0.29877 0.05000
H 	H 	0.24176 0.37929 0.85138 0.07200
H 	H 	0.76686 0.24185 0.15672 0.07800
H 	H 	0.75824 0.87930 0.64864 0.07300
H 	H 	0.23314 0.74189 0.34327 0.07900
H 	H 	0.39319 0.16256 0.75711 0.06800
H 	H 	0.61206 0.12326 0.25036 0.06600
H 	H 	0.60681 0.66258 0.74288 0.06900
H 	H 	0.38794 0.62329 0.24963 0.06600
H 	H 	0.54429 0.94728 0.83632 0.07100
H 	H 	0.45381 0.99292 0.17218 0.07800
H 	H 	0.45571 0.44727 0.66367 0.07300
H 	H 	0.54618 0.49284 0.32783 0.07300
N 	N 	0.97488 0.23920 0.47064 -0.15900
H 	H 	0.97255 0.35661 0.50524 0.09800
H 	H 	0.93921 0.20453 0.44412 0.09600
N 	N 	0.02534 0.76098 0.52940 -0.15900
H 	H 	0.02800 0.64396 0.49473 0.10000
H 	H 	0.06091 0.79624 0.55627 0.09800
N 	N 	0.02512 0.73919 0.02936 -0.15300
H 	H 	0.02744 0.85663 0.99476 0.09500
H 	H 	0.06079 0.70454 0.05585 0.09700
N 	N 	0.97465 0.26099 0.97060 -0.16500
H 	H 	0.97198 0.14398 0.00527 0.10400
H 	H 	0.93909 0.29626 0.94373 0.09600
O 	O 	0.84800 0.57991 0.15802 -0.18100
C 	C 	0.85720 0.54448 0.08218 -0.03000
H 	H 	0.88176 0.65125 0.06470 0.05300
H 	H 	0.82285 0.53624 0.03735 0.05400
H 	H 	0.87571 0.40781 0.08314 0.05100
O 	O 	0.14305 0.75318 0.84184 -0.17800
C 	C 	0.13309 0.71633 0.91708 -0.02800
H 	H 	0.11130 0.83005 0.93666 0.04800
H 	H 	0.16703 0.69352 0.96163 0.05100
H 	H 	0.11134 0.58657 0.91365 0.05000
O 	O 	0.15201 0.07994 0.34199 -0.18100
C 	C 	0.14282 0.04452 0.41784 -0.03400
H 	H 	0.11822 0.15119 0.43529 0.05200
H 	H 	0.17717 0.03646 0.46268 0.05300
H 	H 	0.12435 0.90777 0.41692 0.05400
O 	O 	0.85696 0.25319 0.65805 -0.17800
C 	C 	0.86693 0.21659 0.58279 -0.02900
H 	H 	0.83299 0.19390 0.53823 0.05200
H 	H 	0.88867 0.08683 0.58615 0.05100
H 	H 	0.88870 0.33044 0.56328 0.04800
N 	N 	0.74741 0.60777 0.11733 -0.16700
H 	H 	0.72877 0.61568 0.05883 0.10200
H 	H 	0.72192 0.60357 0.15374 0.09500
N 	N 	0.24349 0.74278 0.88785 -0.16800
H 	H 	0.26156 0.74496 0.94678 0.10000
H 	H 	0.26933 0.72766 0.85247 0.09400
N 	N 	0.25260 0.10782 0.38263 -0.16800
H 	H 	0.27124 0.11571 0.44113 0.10000
H 	H 	0.27808 0.10364 0.34621 0.09400
N 	N 	0.75651 0.24278 0.61210 -0.16800
H 	H 	0.73844 0.24500 0.55317 0.10000
H 	H 	0.73067 0.22761 0.64748 0.09300
O 	O 	0.63747 0.90355 0.86588 -0.18600
C 	C 	0.63900 0.04689 0.81057 -0.02900
H 	H 	0.65106 0.18163 0.84003 0.05200
H 	H 	0.60331 0.06372 0.76980 0.03900
H 	H 	0.66578 0.00796 0.77425 0.06000
O 	O 	0.35996 0.99969 0.14234 -0.18200
C 	C 	0.36401 0.14592 0.19782 -0.03000
H 	H 	0.35738 0.28430 0.16851 0.05700
H 	H 	0.39992 0.14414 0.23878 0.03900
H 	H 	0.33597 0.12594 0.23392 0.06000
O 	O 	0.36252 0.40356 0.63411 -0.19000
C 	C 	0.36104 0.54679 0.68948 -0.02600
H 	H 	0.34904 0.68169 0.66008 0.05300
H 	H 	0.39673 0.56331 0.73029 0.03900
H 	H 	0.33422 0.50794 0.72575 0.06100
O 	O 	0.64006 0.49963 0.35768 -0.18900
C 	C 	0.63586 0.64541 0.30195 -0.02500
H 	H 	0.64221 0.78422 0.33102 0.05600
H 	H 	0.60000 0.64248 0.26083 0.04000
H 	H 	0.66404 0.62576 0.26606 0.06000
N 	N 	0.48599 0.20378 0.78697 -0.19000
H 	H 	0.49191 0.09881 0.74821 0.08100
H 	H 	0.51853 0.26494 0.81537 0.08300
N 	N 	0.52174 0.21522 0.22037 -0.18900
H 	H 	0.51184 0.11932 0.25966 0.07900
H 	H 	0.49189 0.29216 0.19153 0.08300
N 	N 	0.51401 0.70379 0.71303 -0.19000
H 	H 	0.50809 0.59881 0.75178 0.08200
H 	H 	0.48147 0.76494 0.68462 0.08500
N 	N 	0.47826 0.71521 0.27962 -0.18900
H 	H 	0.48817 0.61928 0.24033 0.08100
H 	H 	0.50812 0.79214 0.30846 0.08300
