data_crystal

_cell_length_a 20.16274
_cell_length_b 7.25651
_cell_length_c 13.55587
_cell_angle_alpha 90.22354
_cell_angle_beta  103.03069
_cell_angle_gamma 89.79699

_symmetry_space_group_name_	'P 1'
_symmetry_space_group_name_H-M	'P 1'

loop_
_symmetry_equiv_pos_as_xyz
  x,y,z

loop_
_atom_site_label
_atom_site_type_symbol
_atom_site_fract_x
_atom_site_fract_y
_atom_site_fract_z
_atom_site_charge
O 	O 	0.44956 0.50681 0.59970 -0.46700
O 	O 	0.55044 0.00681 0.40030 -0.47000
O 	O 	0.58796 0.18006 0.59576 -0.48800
O 	O 	0.41204 0.68006 0.40424 -0.48800
C 	C 	0.61492 0.34415 0.61751 0.35700
C 	C 	0.38508 0.84424 0.38246 0.36000
O 	O 	0.45238 0.17743 0.61170 -0.47200
O 	O 	0.54762 0.67743 0.38830 -0.47100
O 	O 	0.41390 0.00189 0.41635 -0.48400
O 	O 	0.58610 0.50189 0.58365 -0.48100
C 	C 	0.43627 0.34614 0.63747 0.33800
C 	C 	0.56374 0.84519 0.36250 0.34100
O 	O 	0.48753 0.33749 0.43589 -0.60700
O 	O 	0.51247 0.83749 0.56411 -0.60600
V 	V 	0.50231 0.06466 0.51189 1.79100
V 	V 	0.49769 0.56466 0.48811 1.79200
C 	C 	0.60998 0.84117 0.10968 -0.07000
C 	C 	0.38967 0.40152 0.88853 -0.07000
H 	H 	0.51640 0.83506 0.15975 0.03200
H 	H 	0.48327 0.39708 0.83844 0.03100
H 	H 	0.69311 0.83926 0.98379 0.04300
H 	H 	0.30634 0.42915 0.01351 0.04400
H 	H 	0.58398 0.83444 0.03051 0.05200
H 	H 	0.41551 0.42410 0.96684 0.05200
C 	C 	0.60367 0.85108 0.28518 -0.08800
C 	C 	0.39629 0.35653 0.71465 -0.08800
C 	C 	0.93213 0.87094 0.31733 -0.03400
C 	C 	0.06808 0.32851 0.68390 -0.03500
C 	C 	0.89692 0.87202 0.39489 0.06600
C 	C 	0.10340 0.31156 0.60689 0.06700
C 	C 	0.82569 0.86645 0.37103 -0.07900
C 	C 	0.17455 0.32233 0.63026 -0.08000
C 	C 	0.78810 0.85954 0.26915 0.01800
C 	C 	0.21193 0.35036 0.73109 0.01800
C 	C 	0.82489 0.85699 0.19089 0.03900
C 	C 	0.17502 0.36856 0.80873 0.03800
C 	C 	0.71530 0.85543 0.24228 -0.02200
C 	C 	0.28465 0.36052 0.75754 -0.02200
C 	C 	0.68135 0.84744 0.13821 0.04200
C 	C 	0.31839 0.38954 0.86052 0.04200
C 	C 	0.71868 0.84508 0.06319 -0.04500
C 	C 	0.28094 0.40705 0.93494 -0.04600
C 	C 	0.78922 0.85006 0.08887 -0.03800
C 	C 	0.21048 0.39660 0.90970 -0.03800
C 	C 	0.67468 0.85832 0.31485 0.01100
C 	C 	0.32538 0.34351 0.68555 0.01000
C 	C 	0.57140 0.84197 0.18284 0.02800
C 	C 	0.42836 0.38583 0.81587 0.02700
C 	C 	0.89689 0.86295 0.21614 -0.07700
C 	C 	0.10311 0.35711 0.78400 -0.07700
H 	H 	0.69629 0.86412 0.39508 0.03400
H 	H 	0.30393 0.32182 0.60612 0.03400
H 	H 	0.98729 0.87691 0.33558 0.04300
H 	H 	0.01300 0.31880 0.66612 0.04300
H 	H 	0.80145 0.86792 0.43414 0.05200
H 	H 	0.19889 0.30788 0.56764 0.05200
H 	H 	0.81559 0.84818 0.02758 0.05000
H 	H 	0.18400 0.41097 0.97049 0.05000
C 	C 	0.21685 0.02299 0.22482 -0.01500
C 	C 	0.78227 0.52329 0.77731 -0.01200
H 	H 	0.19251 0.15576 0.20699 0.04500
H 	H 	0.80590 0.65626 0.79689 0.04400
C 	C 	0.28207 0.01861 0.28818 -0.00600
C 	C 	0.71708 0.51878 0.71387 -0.00300
H 	H 	0.30564 0.14759 0.31724 0.04400
H 	H 	0.69281 0.64792 0.68649 0.04400
C 	C 	0.31611 0.85021 0.31380 -0.07900
C 	C 	0.68390 0.35009 0.68615 -0.08100
C 	C 	0.28312 0.68628 0.27404 -0.00400
C 	C 	0.71775 0.18602 0.72387 -0.00400
H 	H 	0.30756 0.55363 0.29186 0.04300
H 	H 	0.69402 0.05316 0.70433 0.04200
C 	C 	0.21791 0.69061 0.21065 -0.01200
C 	C 	0.78294 0.19048 0.78730 -0.01200
H 	H 	0.19445 0.56155 0.18152 0.04600
H 	H 	0.80710 0.06124 0.81472 0.04500
C 	C 	0.18374 0.85901 0.18525 -0.06500
C 	C 	0.81624 0.35916 0.81481 -0.06700
O 	O 	0.91392 0.20337 0.91626 -0.47400
O 	O 	0.08608 0.70337 0.08374 -0.47400
O 	O 	0.04762 0.53554 0.88829 -0.47100
O 	O 	0.95238 0.03554 0.11171 -0.47200
C 	C 	0.06353 0.36775 0.86211 0.34000
C 	C 	0.93643 0.86878 0.13789 0.34200
O 	O 	0.91204 0.53278 0.90422 -0.47800
O 	O 	0.08796 0.03278 0.09578 -0.48200
O 	O 	0.94955 0.70816 0.09972 -0.46600
O 	O 	0.05045 0.20816 0.90028 -0.46500
C 	C 	0.88543 0.36498 0.88303 0.32700
C 	C 	0.11456 0.86487 0.11700 0.33100
O 	O 	0.01248 0.37530 0.06406 -0.61100
O 	O 	0.98752 0.87530 0.93594 -0.61100
V 	V 	0.99769 0.64818 0.98811 1.79000
V 	V 	0.00231 0.14818 0.01189 1.79000
C 	C 	0.93484 0.88006 0.50380 -0.19300
H 	H 	0.99082 0.88333 0.51109 0.06900
H 	H 	0.91975 0.00604 0.54015 0.07000
H 	H 	0.92239 0.75693 0.54448 0.07300
C 	C 	0.06571 0.28092 0.49914 -0.19500
H 	H 	0.00978 0.27554 0.49211 0.06900
H 	H 	0.07688 0.39504 0.45105 0.07400
H 	H 	0.08221 0.14855 0.47081 0.07000
