data_crystal

_cell_length_a 10.69635
_cell_length_b 10.65512
_cell_length_c 9.93550
_cell_angle_alpha 89.12031
_cell_angle_beta  88.96918
_cell_angle_gamma 92.10680

_symmetry_space_group_name_	'P 1'
_symmetry_space_group_name_H-M	'P 1'

loop_
_symmetry_equiv_pos_as_xyz
  x,y,z

loop_
_atom_site_label
_atom_site_type_symbol
_atom_site_fract_x
_atom_site_fract_y
_atom_site_fract_z
_atom_site_charge
C 	C 	0.50540 0.26025 0.50016 0.35800
C 	C 	0.87912 0.49618 0.49968 -0.10100
C 	C 	0.93976 0.63048 0.46792 0.04800
C 	C 	0.92676 0.39692 0.39639 0.02300
C 	C 	0.57512 0.06510 0.60564 -0.00300
C 	C 	0.52887 0.12970 0.49541 -0.10100
C 	C 	0.51191 0.06675 0.37353 -0.01900
C 	C 	0.51131 0.93758 0.37289 0.01500
C 	C 	0.52907 0.87203 0.49379 -0.14100
C 	C 	0.57429 0.93637 0.60517 0.07400
C 	C 	0.54035 0.92497 0.75159 -0.13000
C 	C 	0.25814 0.49557 0.50144 0.33600
C 	C 	0.54047 0.06783 0.75171 0.02500
C 	C 	0.43643 0.40745 0.07405 0.03100
C 	C 	0.57047 0.58608 0.06599 0.08700
C 	C 	0.57019 0.58493 0.92335 -0.02300
C 	C 	0.43548 0.40777 0.93161 0.02500
C 	C 	0.29683 0.38178 0.93134 -0.02100
C 	C 	0.29944 0.37779 0.08554 -0.03000
C 	C 	0.50570 0.73996 0.49884 0.37600
C 	C 	0.74228 0.50047 0.49959 0.34900
C 	C 	0.06702 0.47440 0.64883 -0.05000
C 	C 	0.92455 0.45897 0.64343 -0.03900
C 	C 	0.08111 0.61860 0.44545 -0.08200
C 	C 	0.07019 0.38163 0.41453 0.00500
C 	C 	0.12187 0.49124 0.50348 -0.06300
H 	H 	0.91479 0.43742 0.29370 0.02600
H 	H 	0.10633 0.62478 0.33612 0.05200
H 	H 	0.61621 0.88361 0.81096 0.05700
H 	H 	0.44666 0.10488 0.76840 0.02500
H 	H 	0.10429 0.39148 0.70031 0.04000
H 	H 	0.62537 0.65437 0.86522 0.02400
H 	H 	0.89419 0.36072 0.67011 0.03500
H 	H 	0.13123 0.69839 0.49515 0.04700
H 	H 	0.11354 0.39206 0.31259 0.03200
N 	N 	0.49915 0.49914 0.14280 -0.24400
N 	N 	0.49915 0.49918 0.85715 -0.22500
O 	O 	0.50002 0.31679 0.61469 -0.45700
O 	O 	0.50000 0.31676 0.38535 -0.46200
O 	O 	0.31480 0.50000 0.61467 -0.44500
O 	O 	0.31479 0.49996 0.38533 -0.44400
O 	O 	0.50000 0.68324 0.61465 -0.45900
O 	O 	0.49998 0.68321 0.38531 -0.46300
O 	O 	0.68521 0.50004 0.61467 -0.45000
O 	O 	0.68520 0.50000 0.38533 -0.45100
Zn	Zn	0.50001 0.50002 0.65313 1.22200
Zn	Zn	0.49999 0.49998 0.34687 1.22200
H 	H 	0.09310 0.55795 0.70976 0.04400
C 	C 	0.88468 0.70530 0.35191 -0.18400
H 	H 	0.79145 0.73784 0.38317 0.06800
H 	H 	0.94394 0.79112 0.32911 0.05700
H 	H 	0.87960 0.64829 0.25976 0.06600
H 	H 	0.48808 0.11534 0.28164 0.03700
H 	H 	0.48530 0.89023 0.28135 0.03000
H 	H 	0.44578 0.88056 0.77026 0.06600
C 	C 	0.64262 0.12948 0.83703 -0.17100
H 	H 	0.73569 0.09116 0.81365 0.05700
H 	H 	0.64749 0.23239 0.81725 0.06800
H 	H 	0.61976 0.11250 0.94539 0.05700
C 	C 	0.64797 0.68857 0.12651 -0.22700
H 	H 	0.66051 0.67049 0.23289 0.07100
H 	H 	0.74233 0.69417 0.07780 0.06800
H 	H 	0.60293 0.77975 0.11149 0.07400
H 	H 	0.24653 0.46379 0.89199 0.03300
C 	C 	0.25759 0.25982 0.86123 -0.15700
H 	H 	0.30547 0.17788 0.90196 0.05700
H 	H 	0.15525 0.24208 0.87520 0.05300
H 	H 	0.27965 0.26844 0.75190 0.06200
H 	H 	0.24751 0.45551 0.13109 0.03600
C 	C 	0.27254 0.25057 0.15656 -0.15400
H 	H 	0.33519 0.17718 0.12006 0.05400
H 	H 	0.28916 0.26041 0.26543 0.06400
H 	H 	0.17350 0.21965 0.14226 0.05200
H 	H 	0.88463 0.51990 0.72221 0.04200
H 	H 	0.92632 0.68925 0.55867 0.01600
C 	C 	0.10720 0.25115 0.46975 -0.16000
H 	H 	0.09092 0.17782 0.39333 0.05200
H 	H 	0.20814 0.25095 0.49349 0.06000
H 	H 	0.05352 0.22347 0.56266 0.05600
C 	C 	0.84954 0.27069 0.39662 -0.17000
H 	H 	0.75332 0.28399 0.36141 0.07500
H 	H 	0.89126 0.20495 0.32444 0.05400
H 	H 	0.84324 0.22592 0.49809 0.06300
