data_crystal

_cell_length_a 19.51077
_cell_length_b 11.26042
_cell_length_c 18.39758
_cell_angle_alpha 90.09584
_cell_angle_beta  89.43473
_cell_angle_gamma 90.03154

_symmetry_space_group_name_	'P 1'
_symmetry_space_group_name_H-M	'P 1'

loop_
_symmetry_equiv_pos_as_xyz
  x,y,z

loop_
_atom_site_label
_atom_site_type_symbol
_atom_site_fract_x
_atom_site_fract_y
_atom_site_fract_z
_atom_site_charge
C 	C 	0.73375 0.38537 0.14971 0.36400
C 	C 	0.99896 0.97966 0.03879 0.10300
C 	C 	0.77011 0.50622 0.56042 -0.07600
C 	C 	0.73003 0.38195 0.35032 0.39700
C 	C 	0.26977 0.38084 0.64973 0.40500
C 	C 	0.23003 0.88195 0.35032 0.36300
C 	C 	0.76977 0.88084 0.64973 0.39100
C 	C 	0.53070 0.15672 0.35151 0.43800
C 	C 	0.46643 0.15702 0.64616 0.44000
C 	C 	0.03070 0.65672 0.35151 0.43700
C 	C 	0.96643 0.65702 0.64616 0.44800
C 	C 	0.72833 0.01890 0.36145 0.12800
C 	C 	0.50066 0.48002 0.96339 0.00700
C 	C 	0.27235 0.02194 0.63885 0.25400
C 	C 	0.22833 0.51890 0.36145 0.30000
C 	C 	0.77235 0.52194 0.63885 0.28800
C 	C 	0.49873 0.16009 0.92416 -0.10600
C 	C 	0.50086 0.15959 0.07611 -0.10300
C 	C 	0.99873 0.66009 0.92416 -0.08000
C 	C 	0.00085 0.65959 0.07611 -0.15000
C 	C 	0.50087 0.26770 0.96204 0.05900
C 	C 	0.49794 0.26738 0.03877 0.05300
C 	C 	0.00086 0.76770 0.96204 0.02800
C 	C 	0.49896 0.47966 0.03878 0.00000
C 	C 	0.99794 0.76738 0.03877 0.10400
C 	C 	0.49763 0.05342 0.03713 -0.06600
C 	C 	0.50270 0.05373 0.96265 -0.06100
C 	C 	0.99763 0.55342 0.03713 0.04100
C 	C 	0.00270 0.55373 0.96265 -0.03000
C 	C 	0.73010 0.96674 0.90568 0.00700
C 	C 	0.26976 0.96674 0.09434 0.00700
C 	C 	0.23010 0.46674 0.90568 -0.10900
C 	C 	0.76976 0.46674 0.09434 -0.10600
C 	C 	0.67069 0.94075 0.94643 0.00700
C 	C 	0.32927 0.94132 0.05359 0.00500
C 	C 	0.17069 0.44075 0.94643 0.05700
C 	C 	0.26625 0.38544 0.85028 0.36500
C 	C 	0.82927 0.44132 0.05359 0.05500
C 	C 	0.66617 0.96963 0.02142 0.14100
C 	C 	0.33379 0.97016 0.97863 0.14400
C 	C 	0.16617 0.46963 0.02142 0.01900
C 	C 	0.83379 0.47016 0.97863 0.02400
C 	C 	0.77135 0.07235 0.00953 0.00900
C 	C 	0.22830 0.07175 0.99054 0.01100
C 	C 	0.27135 0.57235 0.00953 -0.05500
C 	C 	0.72830 0.57175 0.99054 -0.05100
C 	C 	0.76386 0.06504 0.93264 -0.09100
C 	C 	0.23375 0.88537 0.14971 0.33900
C 	C 	0.23568 0.06456 0.06743 -0.09300
C 	C 	0.26386 0.56505 0.93264 0.03500
C 	C 	0.73568 0.56456 0.06743 0.03100
C 	C 	0.63946 0.82565 0.95792 -0.05700
C 	C 	0.36076 0.82651 0.04193 -0.05900
C 	C 	0.13946 0.32565 0.95792 -0.09400
C 	C 	0.86076 0.32651 0.04193 -0.09600
C 	C 	0.63617 0.85209 0.03830 -0.11500
C 	C 	0.36418 0.85293 0.96161 -0.11300
C 	C 	0.13617 0.35209 0.03830 -0.06500
C 	C 	0.76624 0.88544 0.85028 0.34000
C 	C 	0.86418 0.35293 0.96161 -0.06400
C 	C 	0.72138 0.02328 0.05712 -0.14900
C 	C 	0.27845 0.02315 0.94293 -0.15000
C 	C 	0.22138 0.52328 0.05712 -0.04500
C 	C 	0.77845 0.52315 0.94293 -0.04600
C 	C 	0.53125 0.15429 0.14806 0.38500
C 	C 	0.46866 0.15447 0.85203 0.38600
C 	C 	0.03125 0.65429 0.14806 0.40600
C 	C 	0.96866 0.65447 0.85203 0.38400
C 	C 	0.48573 0.16458 0.57057 -0.19700
C 	C 	0.50502 0.37616 0.92534 -0.03600
C 	C 	0.49278 0.16435 0.41904 -0.19100
C 	C 	0.98572 0.66458 0.57057 -0.20200
C 	C 	0.99278 0.66435 0.41904 -0.18800
C 	C 	0.47764 0.06073 0.53092 0.01500
C 	C 	0.47856 0.05936 0.45707 0.01100
C 	C 	0.97764 0.56073 0.53092 0.07500
C 	C 	0.97856 0.55936 0.45707 0.06600
C 	C 	0.48809 0.27330 0.45665 0.25400
C 	C 	0.48666 0.27339 0.53270 0.25800
C 	C 	0.98809 0.77330 0.45665 0.26000
C 	C 	0.49364 0.37545 0.07610 -0.03300
C 	C 	0.98666 0.77339 0.53270 0.26800
C 	C 	0.51130 0.94313 0.53918 -0.04300
C 	C 	0.51112 0.93781 0.45728 -0.04200
C 	C 	0.01130 0.44313 0.53918 -0.10400
C 	C 	0.01112 0.43781 0.45728 -0.10100
C 	C 	0.74428 0.93867 0.58534 -0.06900
C 	C 	0.25293 0.94802 0.41379 -0.01100
C 	C 	0.24428 0.43867 0.58534 -0.13500
C 	C 	0.75293 0.44802 0.41379 -0.12900
C 	C 	0.77668 0.03930 0.55624 0.01800
C 	C 	0.00501 0.87616 0.92534 -0.03700
C 	C 	0.20628 0.02306 0.44996 -0.05400
C 	C 	0.27668 0.53930 0.55624 0.07200
C 	C 	0.70628 0.52306 0.44996 0.06400
C 	C 	0.76995 0.06619 0.48351 -0.07300
C 	C 	0.21482 0.05184 0.52193 0.10400
C 	C 	0.26995 0.56619 0.48351 0.02700
C 	C 	0.71482 0.55184 0.52193 0.02500
C 	C 	0.69207 0.90176 0.46905 -0.06800
C 	C 	0.32315 0.94969 0.52131 0.11200
C 	C 	0.19207 0.40176 0.46905 -0.01400
C 	C 	0.99364 0.87545 0.07610 -0.08000
C 	C 	0.82315 0.44970 0.52131 -0.01800
C 	C 	0.69672 0.87748 0.54271 0.03000
C 	C 	0.31550 0.92414 0.44717 -0.04900
C 	C 	0.19672 0.37748 0.54271 0.01500
C 	C 	0.81551 0.42414 0.44717 0.01800
C 	C 	0.85055 0.07552 0.55616 -0.09500
C 	C 	0.13019 0.01139 0.45932 -0.10100
C 	C 	0.35055 0.57552 0.55616 -0.10000
C 	C 	0.63019 0.51139 0.45932 -0.08500
C 	C 	0.72707 0.02232 0.13963 0.22200
C 	C 	0.00066 0.98002 0.96340 0.05200
C 	C 	0.27289 0.02230 0.86041 0.22300
C 	C 	0.22707 0.52232 0.13963 0.26400
C 	C 	0.77289 0.52230 0.86041 0.26500
C 	C 	0.84353 0.10122 0.47616 -0.04100
C 	C 	0.13960 0.04175 0.53823 -0.17000
C 	C 	0.34353 0.60122 0.47616 -0.07500
C 	C 	0.63960 0.54175 0.53823 -0.06800
C 	C 	0.73120 0.99365 0.43823 0.11000
C 	C 	0.27011 0.00622 0.56042 -0.19300
C 	C 	0.23120 0.49365 0.43823 -0.07800
Cr	Cr	0.77201 0.16967 0.25009 1.52400
Cr	Cr	0.38329 0.01076 0.74916 1.50000
Cr	Cr	0.11671 0.51076 0.25084 1.52500
Cr	Cr	0.88329 0.51076 0.74916 1.52500
Cr	Cr	0.22799 0.16967 0.74991 1.52300
Cr	Cr	0.27201 0.66967 0.25009 1.52700
Cr	Cr	0.72799 0.66967 0.74991 1.52700
Cr	Cr	0.61500 0.32326 0.24926 1.53500
Cr	Cr	0.38500 0.32326 0.75074 1.53500
Cr	Cr	0.11500 0.82326 0.24926 1.53800
Cr	Cr	0.88500 0.82326 0.75074 1.53800
Cr	Cr	0.61671 0.01076 0.25084 1.49900
F 	F 	0.49105 0.37842 0.42073 -0.43400
F 	F 	0.48975 0.37847 0.56866 -0.43700
F 	F 	0.99105 0.87842 0.42073 -0.41100
F 	F 	0.98975 0.87847 0.56866 -0.41600
H 	H 	0.49549 0.96906 0.06454 0.09200
H 	H 	0.47662 0.86794 0.43565 0.04500
H 	H 	0.06328 0.45133 0.56265 0.05700
H 	H 	0.97662 0.36794 0.43565 0.04900
H 	H 	0.66218 0.84228 0.43571 0.05900
H 	H 	0.36739 0.91662 0.54915 0.02200
H 	H 	0.16218 0.34228 0.43571 0.03800
H 	H 	0.86739 0.41662 0.54915 0.03800
H 	H 	0.66938 0.80161 0.56384 0.02700
H 	H 	0.35504 0.87581 0.41823 0.05100
H 	H 	0.16938 0.30162 0.56384 0.02600
H 	H 	0.50552 0.96959 0.93485 0.09100
H 	H 	0.85504 0.37581 0.41823 0.02500
H 	H 	0.88649 0.00144 0.56612 0.07700
H 	H 	0.11211 0.91873 0.45180 0.13300
H 	H 	0.38649 0.50143 0.56612 0.10800
H 	H 	0.61211 0.41873 0.45180 0.09900
H 	H 	0.85944 0.15657 0.58938 0.04700
H 	H 	0.10166 0.08034 0.42879 0.05500
H 	H 	0.35944 0.65656 0.58938 0.06000
H 	H 	0.60166 0.58034 0.42879 0.06800
H 	H 	0.85033 0.19584 0.46327 0.03900
H 	H 	0.99549 0.46906 0.06454 0.02900
H 	H 	0.11522 0.12713 0.55370 0.06600
H 	H 	0.35034 0.69584 0.46327 0.04900
H 	H 	0.61522 0.62713 0.55370 0.05200
H 	H 	0.87382 0.03940 0.44127 0.06100
H 	H 	0.12676 0.96613 0.57476 0.15300
H 	H 	0.37382 0.53940 0.44127 0.08800
H 	H 	0.62676 0.46613 0.57476 0.08500
H 	H 	0.51721 0.38346 0.86819 0.04400
H 	H 	0.48124 0.38208 0.13326 0.04400
H 	H 	0.01721 0.88347 0.86820 0.06000
H 	H 	0.00551 0.46959 0.93485 0.04200
H 	H 	0.98124 0.88208 0.13327 0.07700
H 	H 	0.00270 0.06305 0.93442 0.01000
H 	H 	0.99770 0.06236 0.06832 -0.00100
H 	H 	0.50270 0.56305 0.93442 0.05800
H 	H 	0.49770 0.56237 0.06831 0.05800
H 	H 	0.80144 0.10386 0.89628 0.06000
H 	H 	0.19793 0.10304 0.10377 0.06100
H 	H 	0.30144 0.60386 0.89628 0.04700
H 	H 	0.69794 0.60304 0.10377 0.04900
H 	H 	0.17909 0.26173 0.94285 0.08100
H 	H 	0.97829 0.37478 0.56519 0.05100
H 	H 	0.82113 0.26253 0.05680 0.08200
H 	H 	0.67909 0.76173 0.94285 0.07100
H 	H 	0.32113 0.76253 0.05680 0.07200
H 	H 	0.58876 0.81794 0.93145 0.06100
H 	H 	0.41140 0.81913 0.06855 0.06100
H 	H 	0.08876 0.31794 0.93145 0.06200
H 	H 	0.91140 0.31913 0.06855 0.06500
H 	H 	0.58352 0.85511 0.06051 0.07100
H 	H 	0.41687 0.85654 0.93958 0.07100
H 	H 	0.08352 0.35511 0.06051 0.04900
H 	H 	0.06340 0.43591 0.43449 0.05900
H 	H 	0.91687 0.35654 0.93958 0.05100
H 	H 	0.67175 0.79699 0.07062 0.08400
H 	H 	0.32885 0.79744 0.92907 0.08400
H 	H 	0.17175 0.29699 0.07062 0.06400
H 	H 	0.82885 0.29744 0.92907 0.06400
H 	H 	0.90312 0.03819 0.13710 0.13200
H 	H 	0.09633 0.03651 0.86290 0.13100
H 	H 	0.40312 0.53819 0.13710 0.15600
H 	H 	0.59634 0.53650 0.86290 0.15500
H 	H 	0.47829 0.87478 0.56519 0.04800
H 	H 	0.56339 0.93592 0.43449 0.06400
H 	H 	0.56328 0.95133 0.56265 0.06400
O 	O 	0.78752 0.04281 0.17044 -0.41600
O 	O 	0.45405 0.05121 0.66914 -0.52300
O 	O 	0.04595 0.55121 0.33086 -0.49800
O 	O 	0.95405 0.55121 0.66914 -0.49500
O 	O 	0.68139 0.95948 0.32551 -0.37900
O 	O 	0.31861 0.95948 0.67449 -0.40300
O 	O 	0.18139 0.45948 0.32551 -0.47900
O 	O 	0.81861 0.45948 0.67449 -0.47400
O 	O 	0.66790 0.16790 0.25006 -0.73300
O 	O 	0.33210 0.16790 0.74994 -0.73400
O 	O 	0.16790 0.66790 0.25006 -0.72500
O 	O 	0.21248 0.04281 0.82956 -0.41600
O 	O 	0.83210 0.66790 0.74994 -0.72500
O 	O 	0.76564 0.29210 0.17502 -0.50200
O 	O 	0.23436 0.29210 0.82498 -0.50500
O 	O 	0.26564 0.79210 0.17502 -0.49300
O 	O 	0.73436 0.79210 0.82498 -0.49500
O 	O 	0.67019 0.40884 0.16854 -0.45100
O 	O 	0.32981 0.40884 0.83146 -0.45300
O 	O 	0.17019 0.90884 0.16854 -0.42700
O 	O 	0.82981 0.90884 0.83146 -0.42700
O 	O 	0.55662 0.25141 0.17516 -0.50700
O 	O 	0.28752 0.54281 0.17044 -0.40700
O 	O 	0.44338 0.25141 0.82484 -0.50700
O 	O 	0.05662 0.75141 0.17516 -0.50700
O 	O 	0.94338 0.75141 0.82484 -0.49700
O 	O 	0.54596 0.04962 0.17032 -0.50700
O 	O 	0.45404 0.04962 0.82968 -0.50700
O 	O 	0.04596 0.54962 0.17032 -0.48300
O 	O 	0.95404 0.54962 0.82968 -0.47400
O 	O 	0.68139 0.95801 0.17669 -0.39900
O 	O 	0.31861 0.95801 0.82331 -0.39900
O 	O 	0.18139 0.45801 0.17669 -0.46900
O 	O 	0.71248 0.54281 0.82956 -0.40800
O 	O 	0.81861 0.45801 0.82331 -0.46900
O 	O 	0.78751 0.04439 0.33097 -0.40800
O 	O 	0.21249 0.04439 0.66903 -0.44400
O 	O 	0.28751 0.54439 0.33097 -0.42700
O 	O 	0.71249 0.54439 0.66903 -0.42900
O 	O 	0.76563 0.29357 0.32384 -0.52300
O 	O 	0.23437 0.29357 0.67616 -0.52700
O 	O 	0.26563 0.79357 0.32384 -0.51000
O 	O 	0.73437 0.79357 0.67616 -0.51800
O 	O 	0.67019 0.41042 0.32908 -0.47000
O 	O 	0.55661 0.25288 0.32398 -0.49700
O 	O 	0.32981 0.41042 0.67092 -0.46700
O 	O 	0.17019 0.91042 0.32908 -0.44100
O 	O 	0.82981 0.91042 0.67092 -0.43900
O 	O 	0.86381 0.91803 0.02648 -0.15000
O 	O 	0.89431 0.11021 0.96974 -0.23200
O 	O 	0.88660 0.10655 0.10842 -0.30000
O 	O 	0.13572 0.91733 0.97342 -0.15300
O 	O 	0.10536 0.10999 0.02995 -0.23700
O 	O 	0.11306 0.10513 0.89136 -0.30200
O 	O 	0.36381 0.41803 0.02648 -0.21300
O 	O 	0.44339 0.25288 0.67602 -0.49700
O 	O 	0.39431 0.61021 0.96974 -0.23300
O 	O 	0.38660 0.60655 0.10842 -0.31400
O 	O 	0.63572 0.41733 0.97343 -0.21300
O 	O 	0.60536 0.60999 0.02995 -0.23500
O 	O 	0.61306 0.60513 0.89137 -0.31400
O 	O 	0.05661 0.75288 0.32398 -0.49000
O 	O 	0.94339 0.75288 0.67602 -0.48900
O 	O 	0.54595 0.05121 0.33086 -0.52700
S 	S 	0.85565 0.05068 0.02999 0.28000
S 	S 	0.14404 0.04995 0.96982 0.28400
S 	S 	0.35565 0.55068 0.02999 0.37700
S 	S 	0.64404 0.54995 0.96983 0.37900
