data_crystal

_cell_length_a 8.60609
_cell_length_b 15.44209
_cell_length_c 18.89848
_cell_angle_alpha 97.11492
_cell_angle_beta  94.56620
_cell_angle_gamma 99.15532

_symmetry_space_group_name_	'P 1'
_symmetry_space_group_name_H-M	'P 1'

loop_
_symmetry_equiv_pos_as_xyz
  x,y,z

loop_
_atom_site_label
_atom_site_type_symbol
_atom_site_fract_x
_atom_site_fract_y
_atom_site_fract_z
_atom_site_charge
P 	P 	0.99067 0.70747 0.56186 0.36100
O 	O 	0.16499 0.72187 0.54149 -0.33100
O 	O 	0.89301 0.60848 0.53915 -0.44600
O 	O 	0.38910 0.66749 0.41386 -0.33800
O 	O 	0.32928 0.82527 0.46631 -0.18100
O 	O 	0.99227 0.74257 0.65533 -0.14600
O 	O 	0.39130 0.80849 0.33304 -0.19700
H 	H 	0.55482 0.72444 0.30403 0.03100
C 	C 	0.32912 0.68175 0.24142 -0.18100
H 	H 	0.26854 0.64172 0.27911 0.08700
H 	H 	0.24510 0.71049 0.20823 0.10100
P 	P 	0.34014 0.43010 0.33889 0.35300
P 	P 	0.90478 0.60107 0.28477 0.30500
O 	O 	0.17207 0.45760 0.32905 -0.33700
O 	O 	0.96437 0.62205 0.37734 -0.32200
O 	O 	0.98845 0.52564 0.25427 -0.14800
O 	O 	0.29945 0.31451 0.31938 -0.21000
O 	O 	0.99393 0.68755 0.24373 -0.19000
C 	C 	0.95717 0.76706 0.27599 0.13800
H 	H 	0.01207 0.78179 0.33249 -0.00000
H 	H 	0.82724 0.76341 0.27502 0.03600
C 	C 	0.02525 0.84169 0.23458 -0.04700
H 	H 	0.15577 0.84817 0.24028 0.09000
C 	C 	0.70050 0.24162 0.29769 0.00500
H 	H 	0.59854 0.21126 0.32296 0.07900
C 	C 	0.73185 0.18040 0.23150 -0.03000
H 	H 	0.65706 0.18863 0.18270 0.08900
H 	H 	0.85644 0.19687 0.21999 0.08900
Ba	Ba	0.16175 0.54467 0.46776 1.82500
C 	C 	0.12366 0.72654 0.69714 -0.02200
H 	H 	0.21873 0.71321 0.66356 0.06500
C 	C 	0.20131 0.80603 0.75599 -0.03300
H 	H 	0.32048 0.79258 0.76974 0.09000
C 	C 	0.20175 0.27922 0.36792 0.12900
H 	H 	0.10466 0.31657 0.37509 -0.01500
H 	H 	0.26923 0.28501 0.42130 -0.00900
C 	C 	0.13322 0.18228 0.33809 -0.21200
H 	H 	0.02970 0.15836 0.36525 0.09300
H 	H 	0.09422 0.17654 0.28015 0.11100
P 	P 	0.81962 0.29252 0.43808 0.31200
O 	O 	0.64530 0.27807 0.45848 -0.30400
O 	O 	0.91728 0.39152 0.46079 -0.44400
O 	O 	0.42120 0.33251 0.58609 -0.34600
O 	O 	0.83764 0.26673 0.34505 -0.18900
P 	P 	0.88212 0.37753 0.71436 0.35700
O 	O 	0.38362 0.54548 0.58456 -0.45900
O 	O 	0.84592 0.37794 0.62261 -0.32400
O 	O 	0.77164 0.43567 0.75040 -0.18400
O 	O 	0.81199 0.27021 0.73012 -0.22500
Ba	Ba	0.64843 0.45532 0.53218 1.97400
P 	P 	0.44365 0.78308 0.41885 0.31100
C 	C 	0.45613 0.75440 0.28124 0.04600
H 	H 	0.38276 0.63901 0.20318 0.08300
O 	O 	0.42668 0.45451 0.41538 -0.48800
C 	C 	0.59501 0.71444 0.74329 0.00700
H 	H 	0.69526 0.68002 0.73721 0.08100
C 	C 	0.58008 0.73528 0.82523 -0.02600
H 	H 	0.64782 0.69186 0.85347 0.07500
H 	H 	0.45646 0.71540 0.83696 0.07900
P 	P 	0.46099 0.55652 0.67459 0.30400
O 	O 	0.63822 0.54234 0.67093 -0.32200
O 	O 	0.45203 0.66562 0.70936 -0.19900
C 	C 	0.94279 0.22838 0.74351 0.20400
H 	H 	0.01498 0.22596 0.69711 -0.03200
H 	H 	0.01793 0.26380 0.79193 -0.01200
C 	C 	0.88653 0.13518 0.75941 -0.18500
H 	H 	0.81131 0.13675 0.80398 0.11500
P 	P 	0.36614 0.21769 0.58236 0.30900
C 	C 	0.44389 0.24869 0.72249 0.11300
H 	H 	0.33714 0.27780 0.73423 0.02300
O 	O 	0.48129 0.17606 0.53549 -0.16400
O 	O 	0.40585 0.17972 0.66461 -0.18600
H 	H 	0.53797 0.30099 0.71064 0.03900
H 	H 	0.39901 0.16500 0.80522 0.12400
C 	C 	0.50065 0.20642 0.78742 -0.21000
H 	H 	0.57886 0.16039 0.76998 0.12500
C 	C 	0.65588 0.82822 0.45377 -0.05200
H 	H 	0.68940 0.69782 0.47359 0.00500
H 	H 	0.52391 0.96221 0.40663 0.07800
C 	C 	0.89819 0.79188 0.51190 -0.03000
C 	C 	0.06585 0.23328 0.52035 -0.08300
C 	C 	0.16070 0.17388 0.54260 0.00000
C 	C 	0.10263 0.08223 0.53410 -0.09000
C 	C 	0.94904 0.04599 0.50065 0.08800
C 	C 	0.85657 0.10821 0.47415 0.00700
C 	C 	0.88443 0.95030 0.49254 -0.00200
C 	C 	0.72594 0.92023 0.46015 0.05900
C 	C 	0.64181 0.98261 0.43376 -0.01800
C 	C 	0.70725 0.07263 0.43935 -0.01200
C 	C 	0.96833 0.88365 0.51733 0.06000
C 	C 	0.74494 0.76646 0.47743 0.01900
C 	C 	0.91547 0.20414 0.48360 0.01400
H 	H 	0.08828 0.90178 0.54135 0.04100
H 	H 	0.11440 0.30323 0.52774 0.01100
H 	H 	0.18074 0.04047 0.55371 0.09000
H 	H 	0.64174 0.11486 0.41384 0.08400
C 	C 	0.58074 0.54901 0.29723 -0.00600
C 	C 	0.44003 0.49027 0.27165 -0.02100
C 	C 	0.39475 0.46967 0.19601 -0.03500
C 	C 	0.50173 0.50645 0.14919 0.02600
C 	C 	0.65207 0.55257 0.17709 -0.02300
C 	C 	0.69405 0.56964 0.25085 -0.03000
C 	C 	0.43495 0.57377 0.03913 -0.01600
C 	C 	0.38113 0.56478 0.96625 -0.04000
C 	C 	0.34017 0.48012 0.92650 0.03100
C 	C 	0.35848 0.40589 0.95925 -0.02800
C 	C 	0.43241 0.41593 0.02864 -0.00600
C 	C 	0.45897 0.49876 0.07103 0.01900
C 	C 	0.13543 0.43060 0.82293 -0.01400
C 	C 	0.09136 0.41591 0.74894 -0.07200
C 	C 	0.35569 0.48026 0.72801 -0.04700
C 	C 	0.40120 0.49307 0.80172 -0.00000
C 	C 	0.29142 0.46753 0.84934 0.01100
C 	C 	0.20498 0.43465 0.70132 0.02200
H 	H 	0.51758 0.52931 0.82238 0.06400
H 	H 	0.36793 0.62307 0.94141 0.06700
H 	H 	0.45684 0.63873 0.07052 0.06100
H 	H 	0.32151 0.34051 0.92939 0.07700
H 	H 	0.46362 0.35864 0.05013 0.08500
H 	H 	0.04811 0.41497 0.85972 0.05000
H 	H 	0.73844 0.57295 0.14105 0.08200
H 	H 	0.16934 0.42600 0.64429 -0.00200
H 	H 	0.61443 0.56529 0.35436 0.01000
N 	N 	0.69872 0.08853 0.24167 -0.00200
O 	O 	0.61366 0.03118 0.19163 -0.06100
O 	O 	0.77344 0.06203 0.29492 -0.07500
S 	S 	0.06284 0.62874 0.73397 0.35800
O 	O 	0.01629 0.55677 0.67168 -0.29000
O 	O 	0.20071 0.61338 0.78071 -0.21900
O 	O 	0.91135 0.63154 0.78411 -0.25200
H 	H 	0.92599 0.59081 0.81972 0.18900
N 	N 	0.22243 0.89221 0.72996 0.00500
O 	O 	0.32458 0.95722 0.76564 -0.05100
O 	O 	0.16023 0.90212 0.66728 -0.08700
S 	S 	0.12197 0.81527 0.84160 0.33100
O 	O 	0.18723 0.90430 0.88403 -0.16000
O 	O 	0.94595 0.80467 0.83051 -0.12900
O 	O 	0.17272 0.73769 0.88972 -0.27800
H 	H 	0.11324 0.74272 0.93239 0.16800
S 	S 	0.27403 0.11141 0.35018 0.42200
O 	O 	0.40851 0.16236 0.39992 -0.21200
O 	O 	0.20540 0.03271 0.38365 -0.21600
O 	O 	0.33877 0.07811 0.27145 -0.27200
H 	H 	0.37789 0.02245 0.27826 0.18700
S 	S 	0.53551 0.81941 0.21749 0.33900
O 	O 	0.65538 0.89297 0.25759 -0.14900
O 	O 	0.61473 0.76388 0.16531 -0.19000
O 	O 	0.39537 0.86204 0.17284 -0.25400
H 	H 	0.35844 0.81878 0.12923 0.17000
S 	S 	0.63778 0.80453 0.69404 0.39200
O 	O 	0.68185 0.76767 0.62288 -0.21900
O 	O 	0.49518 0.84642 0.68017 -0.15700
O 	O 	0.78703 0.88000 0.73667 -0.23700
H 	H 	0.87971 0.87087 0.71083 0.20700
N 	N 	0.63453 0.82739 0.85759 -0.00100
O 	O 	0.72818 0.84371 0.91696 -0.05400
O 	O 	0.55954 0.88931 0.83964 -0.05900
N 	N 	0.98708 0.92654 0.26486 0.04400
O 	O 	0.93875 0.93649 0.32844 -0.06500
O 	O 	0.02204 0.99568 0.23255 -0.09800
S 	S 	0.77453 0.06745 0.68242 0.41400
O 	O 	0.63131 0.01551 0.70687 -0.16300
O 	O 	0.87053 0.00507 0.64671 -0.18300
O 	O 	0.71139 0.12901 0.62257 -0.26300
H 	H 	0.80824 0.16372 0.60905 0.16700
S 	S 	0.05223 0.09059 0.79120 0.32400
O 	O 	0.99721 0.00251 0.81435 -0.11800
O 	O 	0.15745 0.08113 0.73213 -0.18200
O 	O 	0.14995 0.15956 0.86242 -0.29400
H 	H 	0.20764 0.12208 0.89015 0.18200
S 	S 	0.60033 0.28040 0.86411 0.41200
O 	O 	0.52873 0.25275 0.92951 -0.21400
O 	O 	0.58220 0.37384 0.85745 -0.20400
O 	O 	0.79477 0.27739 0.87574 -0.27700
H 	H 	0.80818 0.24030 0.91423 0.18300
S 	S 	0.21421 0.39722 0.15721 0.37600
O 	O 	0.12927 0.44381 0.10487 -0.19600
O 	O 	0.25394 0.31468 0.11707 -0.19200
O 	O 	0.08596 0.36314 0.21410 -0.25800
H 	H 	0.07707 0.29799 0.20885 0.16500
N 	N 	0.96816 0.82059 0.15791 0.04200
O 	O 	0.88029 0.86914 0.12696 -0.03100
O 	O 	0.01652 0.75690 0.11851 -0.13000
S 	S 	0.66313 0.33767 0.26639 0.37400
O 	O 	0.77935 0.36887 0.21603 -0.17100
O 	O 	0.50128 0.31711 0.22684 -0.18900
O 	O 	0.68088 0.41092 0.34076 -0.33000
H 	H 	0.79354 0.43922 0.34740 0.13300
