data_crystal

_cell_length_a 10.97203
_cell_length_b 10.97764
_cell_length_c 18.81243
_cell_angle_alpha 90.05823
_cell_angle_beta  89.92516
_cell_angle_gamma 119.94618

_symmetry_space_group_name_	'P 1'
_symmetry_space_group_name_H-M	'P 1'

loop_
_symmetry_equiv_pos_as_xyz
  x,y,z

loop_
_atom_site_label
_atom_site_type_symbol
_atom_site_fract_x
_atom_site_fract_y
_atom_site_fract_z
_atom_site_charge
C 	C 	0.51975 0.45837 0.14748 0.42700
C 	C 	0.54160 0.06127 0.14749 0.41900
C 	C 	0.93875 0.48023 0.14749 0.43700
C 	C 	0.45172 0.52316 0.85549 0.42900
C 	C 	0.07127 0.54824 0.85548 0.42700
C 	C 	0.47679 0.92861 0.85552 0.43300
C 	C 	0.74502 0.02806 0.53929 -0.09500
C 	C 	0.96899 0.71771 0.54814 -0.08100
C 	C 	0.28655 0.25646 0.54016 -0.08700
C 	C 	0.96372 0.71674 0.46792 -0.08400
C 	C 	0.75296 0.03746 0.45922 -0.09500
C 	C 	0.29075 0.24649 0.46033 -0.08900
C 	C 	0.51689 0.45847 0.35280 0.43000
C 	C 	0.54172 0.05904 0.35302 0.42600
C 	C 	0.93600 0.48019 0.35473 0.43200
C 	C 	0.45310 0.52282 0.64365 0.43400
C 	C 	0.06092 0.54183 0.64648 0.42500
C 	C 	0.47874 0.93342 0.64444 0.43400
C 	C 	0.48530 0.95533 0.93133 -0.14700
C 	C 	0.04417 0.52992 0.93126 -0.13400
C 	C 	0.47003 0.51444 0.93128 -0.14000
C 	C 	0.00816 0.50247 0.07906 -0.15800
C 	C 	0.49457 0.99184 0.07911 -0.12400
C 	C 	0.49739 0.50535 0.07908 -0.14000
C 	C 	0.39861 0.99752 0.96391 0.06100
C 	C 	0.00179 0.40103 0.96362 0.03000
C 	C 	0.59889 0.60089 0.96372 0.04800
C 	C 	0.98193 0.38695 0.03638 0.06400
C 	C 	0.40475 0.01762 0.03666 0.02800
C 	C 	0.61291 0.59484 0.03646 0.04500
C 	C 	0.56225 0.92531 0.04814 0.00000
C 	C 	0.07484 0.63660 0.04826 0.01500
C 	C 	0.36325 0.43786 0.04825 0.00700
C 	C 	0.09118 0.65000 0.97469 -0.00000
C 	C 	0.55893 0.90869 0.97459 0.01300
C 	C 	0.34990 0.44109 0.97470 0.00700
C 	C 	0.38718 0.12481 0.94920 -0.09600
C 	C 	0.87416 0.26270 0.94887 -0.07500
C 	C 	0.73749 0.61189 0.94885 -0.08700
C 	C 	0.85109 0.24729 0.02851 -0.09600
C 	C 	0.39525 0.14818 0.02882 -0.07900
C 	C 	0.75284 0.60396 0.02846 -0.08700
C 	C 	0.48846 0.96527 0.56926 -0.14400
C 	C 	0.99490 0.49643 0.57763 -0.12800
C 	C 	0.47303 0.51598 0.56799 -0.14300
C 	C 	0.97140 0.49222 0.42932 -0.13600
C 	C 	0.49941 0.98653 0.42077 -0.13500
C 	C 	0.48455 0.50129 0.41994 -0.13900
C 	C 	0.58929 0.95178 0.53056 0.06100
C 	C 	0.93500 0.56749 0.54435 0.04700
C 	C 	0.36062 0.41165 0.53003 0.05600
C 	C 	0.92573 0.56620 0.47171 0.05700
C 	C 	0.59488 0.96084 0.45803 0.05300
C 	C 	0.36490 0.40414 0.45762 0.05000
C 	C 	0.38176 0.97328 0.45740 0.00500
C 	C 	0.01158 0.40363 0.46249 0.00500
C 	C 	0.58451 0.62289 0.45543 0.00800
C 	C 	0.02207 0.40475 0.53660 -0.00400
C 	C 	0.37794 0.96600 0.53186 0.01100
C 	C 	0.57978 0.62954 0.52983 0.01000
Cr	Cr	0.76916 0.54157 0.25069 1.53600
Cr	Cr	0.45843 0.22759 0.25069 1.53500
Cr	Cr	0.77241 0.23084 0.25069 1.53600
Cr	Cr	0.54157 0.76916 0.74931 1.53600
Cr	Cr	0.22759 0.45843 0.74931 1.53600
Cr	Cr	0.23084 0.77241 0.74931 1.53600
H 	H 	0.62881 0.89920 0.07949 0.03400
H 	H 	0.10127 0.72919 0.07978 0.02800
H 	H 	0.27063 0.37154 0.07972 0.03000
H 	H 	0.13580 0.75393 0.95175 0.03600
H 	H 	0.61845 0.86423 0.95149 0.03400
H 	H 	0.24596 0.38177 0.95174 0.03400
H 	H 	0.78538 0.96143 0.56156 0.04600
H 	H 	0.07511 0.79116 0.56861 0.05000
H 	H 	0.17838 0.21329 0.56152 0.03900
H 	H 	0.87845 0.73132 0.44638 0.04600
H 	H 	0.80058 0.14711 0.44020 0.06200
H 	H 	0.35981 0.20557 0.44299 0.05900
H 	H 	0.78489 0.13153 0.56591 0.05400
H 	H 	0.88321 0.72819 0.57345 0.04100
H 	H 	0.35258 0.22109 0.56819 0.05000
H 	H 	0.06795 0.78363 0.44271 0.04500
H 	H 	0.79670 0.97501 0.43497 0.04400
H 	H 	0.18501 0.19675 0.43520 0.03800
O 	O 	0.91148 0.57265 0.17099 -0.49500
O 	O 	0.42735 0.33883 0.17099 -0.49500
O 	O 	0.66117 0.08852 0.17099 -0.49400
O 	O 	0.57265 0.91148 0.82901 -0.49600
O 	O 	0.33883 0.42735 0.82901 -0.49600
O 	O 	0.08852 0.66117 0.82901 -0.49700
O 	O 	0.64034 0.52897 0.17568 -0.53300
O 	O 	0.47103 0.11137 0.17568 -0.53400
O 	O 	0.88863 0.35966 0.17568 -0.53600
O 	O 	0.52897 0.64034 0.82432 -0.53100
O 	O 	0.11137 0.47103 0.82432 -0.53300
O 	O 	0.35966 0.88863 0.82432 -0.53200
O 	O 	0.90998 0.57245 0.33153 -0.49200
O 	O 	0.42755 0.33753 0.33153 -0.49600
O 	O 	0.66247 0.09002 0.33153 -0.49500
O 	O 	0.57245 0.90998 0.66847 -0.49200
O 	O 	0.33753 0.42755 0.66847 -0.49400
O 	O 	0.09002 0.66247 0.66847 -0.49300
O 	O 	0.63895 0.52878 0.32450 -0.53400
O 	O 	0.47122 0.11017 0.32450 -0.53600
O 	O 	0.88983 0.36105 0.32450 -0.53500
O 	O 	0.52878 0.63895 0.67550 -0.53600
O 	O 	0.11017 0.47122 0.67550 -0.53700
O 	O 	0.36105 0.88983 0.67550 -0.53600
O 	O 	0.66667 0.33333 0.25056 -0.74500
O 	O 	0.33333 0.66667 0.74944 -0.74600
H 	H 	0.28325 0.09773 0.92639 0.04300
H 	H 	0.90090 0.18572 0.92577 0.04100
H 	H 	0.81434 0.71564 0.92592 0.04400
H 	H 	0.75526 0.24985 0.04536 0.05800
H 	H 	0.49349 0.24414 0.04539 0.05400
H 	H 	0.75055 0.50570 0.04508 0.05700
H 	H 	0.47979 0.20775 0.92005 0.05100
H 	H 	0.79119 0.27276 0.91997 0.04700
H 	H 	0.72774 0.51916 0.91974 0.05000
H 	H 	0.86311 0.16053 0.05133 0.04900
H 	H 	0.29651 0.13606 0.05191 0.04400
H 	H 	0.83944 0.70261 0.05143 0.04900
H 	H 	0.30029 0.98155 0.42936 0.02500
H 	H 	0.03853 0.33736 0.43136 0.02300
H 	H 	0.67049 0.70659 0.42648 0.02500
H 	H 	0.06356 0.34392 0.56088 0.03100
H 	H 	0.29283 0.96707 0.56008 0.02500
H 	H 	0.66078 0.72004 0.55736 0.02700
