data_crystal

_cell_length_a 19.11928
_cell_length_b 11.00561
_cell_length_c 18.59046
_cell_angle_alpha 90.04667
_cell_angle_beta  90.49510
_cell_angle_gamma 89.84018

_symmetry_space_group_name_	'P 1'
_symmetry_space_group_name_H-M	'P 1'

loop_
_symmetry_equiv_pos_as_xyz
  x,y,z

loop_
_atom_site_label
_atom_site_type_symbol
_atom_site_fract_x
_atom_site_fract_y
_atom_site_fract_z
_atom_site_charge
O 	O 	0.78819 0.04300 0.17252 -0.51700
O 	O 	0.21181 0.04300 0.82748 -0.52100
O 	O 	0.28819 0.54300 0.17252 -0.49200
O 	O 	0.71181 0.54300 0.82748 -0.48900
O 	O 	0.76624 0.29230 0.17686 -0.52500
O 	O 	0.23376 0.29230 0.82314 -0.52100
O 	O 	0.26624 0.79230 0.17686 -0.48200
O 	O 	0.73376 0.79230 0.82314 -0.51900
C 	C 	0.73042 0.37558 0.14600 0.41200
C 	C 	0.27127 0.37143 0.85594 0.40600
C 	C 	0.21463 0.83386 0.13860 0.31900
C 	C 	0.77068 0.87345 0.85506 0.40900
O 	O 	0.67031 0.40916 0.16872 -0.48100
O 	O 	0.32969 0.40916 0.83128 -0.47800
O 	O 	0.17031 0.90916 0.16872 -0.43100
O 	O 	0.82969 0.90916 0.83128 -0.47600
O 	O 	0.55616 0.25190 0.17338 -0.52800
O 	O 	0.44384 0.25190 0.82662 -0.52600
O 	O 	0.05616 0.75190 0.17338 -0.52700
O 	O 	0.94384 0.75190 0.82662 -0.52700
C 	C 	0.53167 0.15573 0.14500 0.41600
C 	C 	0.46738 0.15540 0.85564 0.41200
C 	C 	0.03141 0.65581 0.14514 0.41300
C 	C 	0.96687 0.65520 0.85589 0.41800
O 	O 	0.54541 0.05014 0.16824 -0.49000
O 	O 	0.45459 0.05014 0.83176 -0.49000
O 	O 	0.04541 0.55014 0.16824 -0.47800
O 	O 	0.95459 0.55014 0.83176 -0.48400
O 	O 	0.68153 0.95835 0.17697 -0.51800
O 	O 	0.31847 0.95835 0.82303 -0.51800
O 	O 	0.18153 0.45835 0.17697 -0.52600
O 	O 	0.81847 0.45835 0.82303 -0.52600
C 	C 	0.74302 0.96505 0.15077 0.44500
C 	C 	0.25634 0.96431 0.84849 0.45100
C 	C 	0.24335 0.46413 0.15128 0.41100
C 	C 	0.75714 0.46649 0.84991 0.41300
O 	O 	0.78861 0.04448 0.33445 -0.50600
O 	O 	0.21139 0.04448 0.66555 -0.51700
O 	O 	0.28861 0.54448 0.33445 -0.48400
O 	O 	0.71139 0.54448 0.66555 -0.47900
O 	O 	0.76663 0.29367 0.32697 -0.49100
O 	O 	0.23337 0.29367 0.67303 -0.46500
O 	O 	0.26663 0.79367 0.32697 -0.45900
O 	O 	0.73337 0.79367 0.67303 -0.48700
C 	C 	0.71461 0.33949 0.36289 0.33300
C 	C 	0.29024 0.33067 0.63771 0.27700
C 	C 	0.20977 0.83057 0.36232 0.27300
C 	C 	0.78514 0.84014 0.63713 0.34000
O 	O 	0.67073 0.41064 0.33064 -0.44700
O 	O 	0.32927 0.41064 0.66936 -0.41700
O 	O 	0.17073 0.91064 0.33064 -0.40300
O 	O 	0.82927 0.91064 0.66936 -0.43900
O 	O 	0.55655 0.25326 0.32348 -0.53700
O 	O 	0.44345 0.25326 0.67652 -0.49000
O 	O 	0.05655 0.75326 0.32348 -0.48600
O 	O 	0.94345 0.75326 0.67652 -0.53500
C 	C 	0.52966 0.15868 0.35070 0.41900
C 	C 	0.43622 0.15221 0.63884 0.30000
C 	C 	0.06381 0.65212 0.36114 0.30200
C 	C 	0.97036 0.65844 0.64932 0.42100
O 	O 	0.54583 0.05161 0.33016 -0.48000
O 	O 	0.45417 0.05161 0.66984 -0.45000
O 	O 	0.04583 0.55161 0.33016 -0.43800
O 	O 	0.95417 0.55161 0.66984 -0.47100
O 	O 	0.68192 0.95972 0.32707 -0.49000
O 	O 	0.31808 0.95972 0.67293 -0.49900
O 	O 	0.18192 0.45972 0.32707 -0.50500
O 	O 	0.81808 0.45972 0.67293 -0.50000
C 	C 	0.74383 0.96164 0.35185 0.44400
C 	C 	0.25292 0.95847 0.65038 0.43900
C 	C 	0.24713 0.45864 0.34969 0.40300
C 	C 	0.75626 0.46158 0.64811 0.41900
Cr	Cr	0.77282 0.16982 0.25264 1.53100
Cr	Cr	0.22718 0.16982 0.74736 1.53000
Cr	Cr	0.27282 0.66982 0.25264 1.52800
Cr	Cr	0.72718 0.66982 0.74736 1.53300
Cr	Cr	0.61504 0.32361 0.24915 1.53200
Cr	Cr	0.38496 0.32361 0.75085 1.52800
Cr	Cr	0.11504 0.82361 0.24915 1.52700
Cr	Cr	0.88496 0.82361 0.75085 1.53400
Cr	Cr	0.61672 0.01113 0.25066 1.52900
Cr	Cr	0.38328 0.01113 0.74934 1.52200
Cr	Cr	0.11672 0.51113 0.25066 1.53200
Cr	Cr	0.88328 0.51113 0.74934 1.53800
O 	O 	0.66819 0.16819 0.25082 -0.74600
O 	O 	0.33181 0.16819 0.74918 -0.75500
O 	O 	0.16819 0.66819 0.25082 -0.75500
O 	O 	0.83181 0.66819 0.74918 -0.74100
C 	C 	0.53975 0.24766 0.96887 -0.00800
C 	C 	0.48411 0.27379 0.02712 0.00600
C 	C 	0.03289 0.75419 0.96951 0.00400
C 	C 	0.97674 0.76975 0.02841 -0.00700
C 	C 	0.56665 0.13750 0.01275 0.00900
C 	C 	0.43197 0.18840 0.98798 -0.01200
C 	C 	0.06648 0.64834 0.01231 -0.00600
C 	C 	0.92926 0.67706 0.98901 0.00100
H 	H 	0.62239 0.11593 0.02453 0.02800
H 	H 	0.37604 0.20636 0.97574 0.03600
H 	H 	0.12326 0.63630 0.02346 0.03600
H 	H 	0.87250 0.68801 0.97745 0.03500
C 	C 	0.51040 0.16334 0.06971 -0.11800
C 	C 	0.48816 0.16244 0.93119 -0.10200
C 	C 	0.00962 0.66350 0.06992 -0.10400
C 	C 	0.98624 0.66150 0.93172 -0.11700
C 	C 	0.45887 0.07839 0.03169 0.01200
C 	C 	0.51451 0.05266 0.97408 -0.03700
C 	C 	0.96270 0.57117 0.03170 -0.00400
C 	C 	0.01909 0.55571 0.97351 0.01000
H 	H 	0.42556 0.00981 0.05852 0.02600
H 	H 	0.52590 0.96325 0.94978 0.06600
H 	H 	0.93396 0.49804 0.05942 0.03800
H 	H 	0.03610 0.46866 0.94927 0.03600
C 	C 	0.75707 0.89795 0.93124 -0.11400
C 	C 	0.22853 0.85220 0.06165 -0.07300
C 	C 	0.25859 0.39149 0.93306 -0.11700
C 	C 	0.74746 0.40653 0.07157 -0.12300
C 	C 	0.69836 0.85049 0.96832 0.04300
C 	C 	0.28746 0.80414 0.02295 0.02500
C 	C 	0.20068 0.34129 0.97074 0.03900
C 	C 	0.80159 0.34724 0.03243 0.04300
C 	C 	0.70093 0.84480 0.04444 0.05800
C 	C 	0.28852 0.81883 0.94708 0.06700
C 	C 	0.20372 0.33674 0.04696 0.05400
C 	C 	0.79689 0.34395 0.95632 0.05000
C 	C 	0.81390 0.94462 0.04446 0.01800
C 	C 	0.18139 0.93671 0.95208 0.02800
C 	C 	0.31615 0.43616 0.04652 0.01100
C 	C 	0.69274 0.47061 0.96091 0.00700
C 	C 	0.81465 0.94112 0.97101 0.00000
C 	C 	0.17496 0.91144 0.02373 -0.01900
C 	C 	0.31674 0.43252 0.97285 -0.00300
C 	C 	0.69466 0.46873 0.03420 0.00300
C 	C 	0.63763 0.80742 0.93276 -0.04900
C 	C 	0.34584 0.74391 0.05500 -0.03400
C 	C 	0.14078 0.29276 0.93611 -0.05100
C 	C 	0.85984 0.29047 0.06591 -0.05200
C 	C 	0.09219 0.22513 0.97452 -0.03300
C 	C 	0.90669 0.22125 0.02607 -0.03200
C 	C 	0.58582 0.74659 0.97056 -0.03100
C 	C 	0.39827 0.69225 0.01314 -0.03400
C 	C 	0.59199 0.73096 0.04443 -0.02100
C 	C 	0.39353 0.69495 0.93881 -0.01600
C 	C 	0.10040 0.20874 0.04822 -0.02300
C 	C 	0.89770 0.20884 0.95224 -0.02700
C 	C 	0.64905 0.77907 0.08122 -0.05500
C 	C 	0.33869 0.75607 0.90587 -0.06000
C 	C 	0.15471 0.26626 0.08463 -0.05700
C 	C 	0.84332 0.26929 0.91745 -0.05700
C 	C 	0.75524 0.90612 0.08161 -0.13600
C 	C 	0.23998 0.89805 0.91426 -0.14400
C 	C 	0.25689 0.40110 0.08352 -0.13100
C 	C 	0.74565 0.41556 0.92118 -0.13000
H 	H 	0.86244 0.97014 0.94571 0.04600
H 	H 	0.12780 0.94274 0.04991 0.04800
H 	H 	0.36496 0.45881 0.94741 0.04000
H 	H 	0.65166 0.51215 0.06154 0.04000
H 	H 	0.04891 0.18324 0.94650 0.02300
H 	H 	0.94916 0.17487 0.05301 0.02100
H 	H 	0.54104 0.71100 0.94206 0.02800
H 	H 	0.44085 0.64370 0.03870 0.02800
H 	H 	0.65327 0.76083 0.13826 0.04600
H 	H 	0.33525 0.75175 0.84782 0.04900
H 	H 	0.15986 0.25096 0.14194 0.04600
H 	H 	0.83682 0.25424 0.86027 0.04200
H 	H 	0.53518 0.34227 0.44562 0.03700
H 	H 	0.49572 0.33506 0.56897 0.04600
H 	H 	0.00502 0.83576 0.43161 0.05100
H 	H 	0.96527 0.84268 0.55489 0.04300
C 	C 	0.45214 0.15620 0.56122 -0.07100
C 	C 	0.48788 0.17209 0.41544 -0.12300
C 	C 	0.01216 0.67149 0.58459 -0.12900
C 	C 	0.04809 0.65611 0.43882 -0.07200
C 	C 	0.43557 0.05956 0.51286 0.00900
C 	C 	0.44624 0.07576 0.43828 0.03000
C 	C 	0.05369 0.57471 0.56151 0.07300
C 	C 	0.06446 0.55889 0.48690 0.02900
C 	C 	0.50406 0.26625 0.46286 0.01700
C 	C 	0.48373 0.26025 0.53398 -0.01300
C 	C 	0.01678 0.76052 0.46637 -0.01000
C 	C 	0.99628 0.76628 0.53747 0.01500
C 	C 	0.41279 0.94458 0.53530 -0.00600
C 	C 	0.42167 0.98826 0.38866 0.03000
C 	C 	0.07814 0.48662 0.61090 -0.04900
C 	C 	0.08726 0.44379 0.46414 -0.03200
C 	C 	0.09870 0.37376 0.58667 0.00300
C 	C 	0.10067 0.35243 0.51359 -0.02700
C 	C 	0.39948 0.85356 0.48557 -0.02100
C 	C 	0.40130 0.87537 0.41256 -0.02100
H 	H 	0.40862 0.91868 0.59036 0.05800
H 	H 	0.42246 0.00408 0.33118 0.01900
H 	H 	0.07731 0.50209 0.66842 0.05500
H 	H 	0.09152 0.41801 0.40905 0.05700
H 	H 	0.11109 0.30187 0.62427 0.02500
H 	H 	0.11590 0.26566 0.49463 0.04900
H 	H 	0.38459 0.76662 0.50419 0.04900
H 	H 	0.38902 0.80376 0.37474 0.03600
C 	C 	0.77255 0.86402 0.56084 -0.08700
C 	C 	0.20955 0.84110 0.44273 -0.02700
C 	C 	0.29066 0.34105 0.55730 -0.04400
C 	C 	0.72716 0.36330 0.43918 -0.07400
C 	C 	0.82415 0.91816 0.51788 0.07800
C 	C 	0.16061 0.91643 0.48117 -0.00700
C 	C 	0.33953 0.41620 0.51899 0.01900
C 	C 	0.67553 0.41756 0.48230 0.02600
C 	C 	0.82452 0.89057 0.44455 0.04100
C 	C 	0.16283 0.91418 0.55695 0.08600
C 	C 	0.33728 0.41430 0.44320 0.07200
C 	C 	0.67554 0.39026 0.55565 0.06700
C 	C 	0.70243 0.83303 0.45363 0.11600
C 	C 	0.26196 0.78479 0.55892 0.12700
C 	C 	0.23869 0.28466 0.44095 0.11700
C 	C 	0.79791 0.33329 0.54609 0.11700
C 	C 	0.71275 0.81624 0.52718 -0.02900
C 	C 	0.25134 0.76177 0.48464 -0.06600
C 	C 	0.24921 0.26174 0.51524 -0.05900
C 	C 	0.78732 0.31596 0.47262 -0.04000
C 	C 	0.86530 0.01664 0.54075 -0.10400
C 	C 	0.11015 0.99609 0.45026 0.05200
C 	C 	0.39002 0.49525 0.55006 -0.03000
C 	C 	0.63408 0.51614 0.45960 -0.04400
C 	C 	0.90842 0.07502 0.49209 0.00300
C 	C 	0.06530 0.06263 0.49275 -0.08500
C 	C 	0.43443 0.56233 0.50770 -0.03400
C 	C 	0.59120 0.57507 0.50849 -0.03200
C 	C 	0.92019 0.02483 0.42438 -0.07500
C 	C 	0.05982 0.04017 0.56559 -0.03600
C 	C 	0.43989 0.54030 0.43479 -0.02100
C 	C 	0.57972 0.52502 0.57621 -0.01500
C 	C 	0.88252 0.92341 0.40323 -0.00300
C 	C 	0.10603 0.95946 0.59706 -0.03300
C 	C 	0.39398 0.45960 0.40318 -0.05600
C 	C 	0.61759 0.42338 0.59717 -0.05900
C 	C 	0.75864 0.87930 0.41234 -0.14100
C 	C 	0.22551 0.87959 0.59085 -0.15300
C 	C 	0.27474 0.37970 0.40919 -0.14200
C 	C 	0.74162 0.37928 0.58760 -0.15000
H 	H 	0.85864 0.05893 0.59220 0.08000
H 	H 	0.10223 0.01609 0.39471 0.01800
H 	H 	0.39846 0.51421 0.60567 0.05800
H 	H 	0.64030 0.55810 0.40808 0.07400
H 	H 	0.93322 0.15839 0.50759 0.04400
H 	H 	0.03564 0.13391 0.46748 0.05100
H 	H 	0.46388 0.63345 0.53317 0.03900
H 	H 	0.56630 0.65866 0.49311 0.05400
H 	H 	0.95535 0.06735 0.38678 0.02800
H 	H 	0.02174 0.08783 0.59790 0.02800
H 	H 	0.47780 0.58812 0.40258 0.03000
H 	H 	0.54463 0.56781 0.61396 0.02000
H 	H 	0.88750 0.89166 0.34828 0.04200
H 	H 	0.10200 0.94257 0.65431 0.04900
H 	H 	0.39814 0.44275 0.34592 0.04500
H 	H 	0.61286 0.39176 0.65214 0.04900
N 	N 	0.63279 0.82093 0.42500 -0.02000
O 	O 	0.62130 0.76276 0.36508 -0.14700
O 	O 	0.58084 0.87411 0.45721 -0.10900
N 	N 	0.29362 0.69552 0.60402 -0.02800
O 	O 	0.34802 0.72307 0.64314 -0.14400
O 	O 	0.25531 0.60376 0.62280 -0.10100
N 	N 	0.20767 0.19493 0.39580 -0.02700
O 	O 	0.15428 0.22251 0.35513 -0.14800
O 	O 	0.24583 0.10141 0.37907 -0.11300
N 	N 	0.86781 0.32238 0.57429 -0.02000
O 	O 	0.88020 0.26404 0.63396 -0.15500
O 	O 	0.91920 0.37562 0.54152 -0.11800
H 	H 	0.67130 0.77622 0.55853 0.06400
H 	H 	0.27837 0.68655 0.45944 0.06500
H 	H 	0.22241 0.18650 0.54034 0.05900
H 	H 	0.82888 0.27613 0.44113 0.06300
H 	H 	0.57269 0.31567 0.94124 0.03100
H 	H 	0.47172 0.36399 0.05051 0.02400
H 	H 	0.05878 0.82800 0.93973 0.02900
H 	H 	0.96024 0.85704 0.05284 0.03000
H 	H 	0.85810 0.98554 0.07196 0.04100
H 	H 	0.14118 0.99233 0.92716 0.04100
H 	H 	0.36083 0.47428 0.07449 0.03200
H 	H 	0.65090 0.52192 0.93557 0.03700
H 	H 	0.62791 0.82267 0.87625 0.04500
H 	H 	0.35470 0.73463 0.11161 0.04100
H 	H 	0.12954 0.30703 0.87983 0.04100
H 	H 	0.87197 0.30201 0.12227 0.03900
H 	H 	0.06468 0.15175 0.07759 0.01800
H 	H 	0.93247 0.15136 0.92167 0.01700
H 	H 	0.55305 0.68053 0.07361 0.02400
H 	H 	0.43152 0.64736 0.90640 0.02200
