data_crystal

_cell_length_a 10.67121
_cell_length_b 10.70091
_cell_length_c 17.10839
_cell_angle_alpha 80.57786
_cell_angle_beta  99.33025
_cell_angle_gamma 118.56697

_symmetry_space_group_name_	'P 1'
_symmetry_space_group_name_H-M	'P 1'

loop_
_symmetry_equiv_pos_as_xyz
  x,y,z

loop_
_atom_site_label
_atom_site_type_symbol
_atom_site_fract_x
_atom_site_fract_y
_atom_site_fract_z
_atom_site_charge
C 	C 	0.36150 0.22998 0.62769 0.43100
C 	C 	0.38641 0.82050 0.67560 0.03500
C 	C 	0.37063 0.84290 0.75073 -0.06700
C 	C 	0.10475 0.45463 0.78924 0.30500
C 	C 	0.12692 0.42594 0.70918 -0.20500
C 	C 	0.32706 0.68036 0.65409 -0.18900
C 	C 	0.82349 0.65700 0.70595 -0.04000
C 	C 	0.85156 0.68498 0.77356 -0.05100
C 	C 	0.34547 0.18854 0.70993 -0.04600
C 	C 	0.32094 0.16044 0.77821 -0.02500
C 	C 	0.33607 0.66539 0.27782 -0.11100
C 	C 	0.36979 0.65434 0.58547 0.46100
C 	C 	0.32323 0.67468 0.20718 -0.09100
C 	C 	0.80611 0.65089 0.15215 -0.07600
C 	C 	0.80457 0.53486 0.20426 0.00400
C 	C 	0.76408 0.50916 0.27965 0.09600
C 	C 	0.70686 0.70652 0.25134 0.00700
C 	C 	0.74803 0.73181 0.17398 0.00100
C 	C 	0.92557 0.49885 0.23056 0.13800
C 	C 	0.88233 0.47118 0.31400 -0.17500
C 	C 	0.72589 0.60176 0.30639 -0.10900
C 	C 	0.31402 0.14654 0.16512 -0.09100
C 	C 	0.77698 0.61897 0.62690 0.42100
C 	C 	0.20647 0.15947 0.19363 0.04200
C 	C 	0.20921 0.16741 0.27269 0.08200
C 	C 	0.41982 0.13165 0.30101 0.04300
C 	C 	0.41633 0.12294 0.22001 0.01300
C 	C 	0.15493 0.26885 0.16770 -0.02100
C 	C 	0.15603 0.27735 0.25527 -0.11600
C 	C 	0.32149 0.16394 0.32669 -0.14300
C 	C 	0.89249 0.70230 0.85564 0.40300
C 	C 	0.28357 0.74900 0.88299 0.29200
C 	C 	0.28441 0.11440 0.85766 0.39200
C 	C 	0.35074 0.22589 0.40017 0.45600
C 	C 	0.88410 0.68942 0.08273 0.40500
C 	C 	0.31259 0.70139 0.12407 0.41800
C 	C 	0.28512 0.10670 0.08543 0.41100
C 	C 	0.36550 0.65432 0.36077 0.41500
C 	C 	0.70348 0.58420 0.38971 0.32300
C 	C 	0.29406 0.72570 0.80439 -0.05400
C 	C 	0.24443 0.58794 0.78379 -0.07200
C 	C 	0.26183 0.56575 0.71080 0.14800
Cr	Cr	0.60844 0.38908 0.51968 1.54700
Cr	Cr	0.28864 0.40009 0.49076 1.54000
Cr	Cr	0.60294 0.71080 0.48951 1.53300
Cr	Cr	0.05253 0.94756 0.96421 1.36400
Cr	Cr	0.05997 0.62680 0.99292 1.42500
Cr	Cr	0.37332 0.93844 0.99537 1.40700
H 	H 	0.44678 0.91200 0.63506 -0.01800
H 	H 	0.90952 0.40340 0.20406 0.06600
H 	H 	0.96457 0.54954 0.35438 0.12800
H 	H 	0.50326 0.12190 0.34255 0.07000
H 	H 	0.49337 0.09885 0.20055 0.09400
H 	H 	0.23592 0.36873 0.13738 0.06800
H 	H 	0.23744 0.38260 0.27451 0.06800
H 	H 	0.04872 0.23713 0.27631 0.04400
H 	H 	0.41768 0.95106 0.76684 -0.00800
H 	H 	0.01210 0.47551 0.78915 -0.05400
H 	H 	0.15048 0.33425 0.71363 0.11600
H 	H 	0.66953 0.77435 0.26948 0.03100
H 	H 	0.74329 0.81903 0.13377 0.04200
H 	H 	0.03207 0.59331 0.22348 -0.09300
O 	O 	0.75402 0.49759 0.60993 -0.43600
O 	O 	0.29508 0.53362 0.39789 -0.55100
O 	O 	0.48528 0.74662 0.38844 -0.52200
O 	O 	0.72055 0.69622 0.42001 -0.49100
O 	O 	0.50001 0.49999 0.49998 -0.75200
O 	O 	0.16332 0.09290 0.87445 -0.42700
O 	O 	0.93465 0.82208 0.88284 -0.51600
O 	O 	0.91552 0.60414 0.89367 -0.44200
O 	O 	0.19176 0.63811 0.92323 -0.53000
O 	O 	0.40618 0.82693 0.92066 -0.52000
O 	O 	0.35862 0.06287 0.90195 -0.46100
O 	O 	0.48142 0.27139 0.60063 -0.49300
O 	O 	0.16391 0.08546 0.05021 -0.34300
O 	O 	0.93520 0.81517 0.04577 -0.39600
O 	O 	0.91612 0.59669 0.06943 -0.34300
O 	O 	0.19231 0.63120 0.08617 -0.47200
O 	O 	0.40677 0.81948 0.09642 -0.45600
O 	O 	0.35917 0.05596 0.06488 -0.35200
O 	O 	0.16194 0.83760 0.98416 -0.94500
O 	O 	0.26381 0.25455 0.58959 -0.48000
O 	O 	0.30082 0.53120 0.56089 -0.53800
O 	O 	0.49148 0.74402 0.56427 -0.52300
O 	O 	0.72629 0.69380 0.58301 -0.52900
O 	O 	0.74783 0.50019 0.43409 -0.43100
O 	O 	0.47568 0.27380 0.43763 -0.52500
O 	O 	0.25762 0.25716 0.41375 -0.49800
C 	C 	0.83041 0.31803 0.34933 0.32800
O 	O 	0.75611 0.21940 0.30834 -0.21700
O 	O 	0.87086 0.28976 0.42940 -0.30600
H 	H 	0.83071 0.18359 0.44676 0.19400
C 	C 	0.00775 0.21093 0.12298 -0.01000
O 	O 	0.90885 0.09984 0.14844 0.01300
O 	O 	0.98524 0.28604 0.05192 -0.09400
H 	H 	0.88256 0.23794 0.02704 0.19900
F 	F 	0.11392 0.35700 0.85081 -0.49200
C 	C 	0.01089 0.41823 0.64392 0.16800
O 	O 	0.89387 0.31206 0.64426 -0.08200
O 	O 	0.03718 0.52822 0.58214 -0.42700
H 	H 	0.95451 0.50430 0.53899 0.26800
