data_crystal

_cell_length_a 16.54485
_cell_length_b 7.25434
_cell_length_c 15.23139
_cell_angle_alpha 90.00585
_cell_angle_beta  94.76537
_cell_angle_gamma 89.99938

_symmetry_space_group_name_	'P 1'
_symmetry_space_group_name_H-M	'P 1'

loop_
_symmetry_equiv_pos_as_xyz
  x,y,z

loop_
_atom_site_label
_atom_site_type_symbol
_atom_site_fract_x
_atom_site_fract_y
_atom_site_fract_z
_atom_site_charge
O 	O 	0.66346 0.36176 0.16597 -0.46100
O 	O 	0.33654 0.63824 0.83403 -0.46100
O 	O 	0.83654 0.86176 0.33403 -0.46200
O 	O 	0.16346 0.13824 0.66597 -0.46200
O 	O 	0.82710 0.68987 0.16373 -0.47800
O 	O 	0.17290 0.31013 0.83627 -0.47800
O 	O 	0.67290 0.18987 0.33627 -0.47800
O 	O 	0.32710 0.81013 0.66373 -0.47800
H 	H 	0.21125 0.06627 0.50071 0.06000
H 	H 	0.78874 0.93373 0.49929 0.06000
H 	H 	0.28845 0.56022 0.99997 0.06000
H 	H 	0.71155 0.43978 0.00003 0.06000
C 	C 	0.85326 0.52293 0.14356 0.36500
C 	C 	0.14674 0.47707 0.85644 0.36500
C 	C 	0.64674 0.02294 0.35644 0.36600
C 	C 	0.35326 0.97706 0.64356 0.36600
O 	O 	0.66349 0.69137 0.15550 -0.46700
O 	O 	0.33651 0.30863 0.84450 -0.46700
O 	O 	0.83651 0.19137 0.34450 -0.46700
O 	O 	0.16349 0.80863 0.65550 -0.46700
O 	O 	0.67177 0.86332 0.32574 -0.47800
O 	O 	0.32823 0.13668 0.67426 -0.47800
O 	O 	0.82823 0.36332 0.17426 -0.47700
O 	O 	0.17177 0.63668 0.82574 -0.47700
C 	C 	0.63609 0.52287 0.13387 0.34000
C 	C 	0.36391 0.47713 0.86613 0.34000
C 	C 	0.86393 0.02288 0.36611 0.34100
C 	C 	0.13607 0.97712 0.63389 0.34100
O 	O 	0.75291 0.52880 0.30586 -0.59200
O 	O 	0.24709 0.47120 0.69414 -0.59200
O 	O 	0.74709 0.02880 0.19414 -0.59100
O 	O 	0.25291 0.97120 0.80586 -0.59100
V 	V 	0.74946 0.80301 0.23964 1.80200
V 	V 	0.25054 0.19699 0.76036 1.80200
V 	V 	0.75054 0.30301 0.26036 1.80300
V 	V 	0.24946 0.69699 0.73964 1.80300
C 	C 	0.46878 0.99470 0.53006 0.06800
C 	C 	0.53122 0.00530 0.46994 0.06800
C 	C 	0.03123 0.49470 0.96995 0.06800
C 	C 	0.96877 0.50530 0.03005 0.06800
H 	H 	0.76626 0.84993 0.64832 0.08400
H 	H 	0.23374 0.15007 0.35168 0.08400
H 	H 	0.73427 0.36070 0.85046 0.08400
H 	H 	0.26573 0.63930 0.14954 0.08400
C 	C 	0.02863 0.09952 0.32534 -0.08400
C 	C 	0.97137 0.90048 0.67466 -0.08400
C 	C 	0.47112 0.59415 0.17527 -0.08500
C 	C 	0.52888 0.40585 0.82473 -0.08500
C 	C 	0.10756 0.13572 0.30245 0.10700
C 	C 	0.89244 0.86428 0.69755 0.10700
C 	C 	0.39205 0.62743 0.19850 0.10700
C 	C 	0.60795 0.37257 0.80150 0.10700
C 	C 	0.17221 0.12347 0.36747 -0.05400
C 	C 	0.82779 0.87653 0.63253 -0.05400
C 	C 	0.32737 0.61485 0.13351 -0.05400
C 	C 	0.67263 0.38515 0.86649 -0.05400
C 	C 	0.15877 0.07524 0.45354 -0.01700
C 	C 	0.84123 0.92476 0.54646 -0.01700
C 	C 	0.34093 0.56935 0.04713 -0.01700
C 	C 	0.65907 0.43065 0.95287 -0.01700
C 	C 	0.07980 0.03823 0.47778 0.03500
C 	C 	0.92020 0.96178 0.52222 0.03500
C 	C 	0.42005 0.53529 0.02257 0.03500
C 	C 	0.57995 0.46471 0.97743 0.03500
C 	C 	0.01333 0.05100 0.41246 0.06400
C 	C 	0.98667 0.94900 0.58754 0.06400
C 	C 	0.48652 0.54818 0.08787 0.06400
C 	C 	0.51348 0.45182 0.91213 0.06400
C 	C 	0.06663 0.98702 0.56531 -0.09100
C 	C 	0.93337 0.01298 0.43469 -0.09100
C 	C 	0.43337 0.48699 0.93469 -0.09200
C 	C 	0.56663 0.51301 0.06531 -0.09200
C 	C 	0.41594 0.98615 0.58140 -0.07600
C 	C 	0.58406 0.01385 0.41860 -0.07600
C 	C 	0.08407 0.48616 0.91861 -0.07600
C 	C 	0.91593 0.51384 0.08139 -0.07600
N 	N 	0.12199 0.18378 0.21332 -0.02200
O 	O 	0.19449 0.22743 0.19315 -0.09500
O 	O 	0.06298 0.18245 0.15124 -0.09500
N 	N 	0.87801 0.81622 0.78668 -0.02200
O 	O 	0.80551 0.77257 0.80685 -0.09500
O 	O 	0.93702 0.81754 0.84876 -0.09500
N 	N 	0.37751 0.67298 0.28792 -0.02200
O 	O 	0.30451 0.70994 0.30883 -0.09500
O 	O 	0.43696 0.67616 0.34949 -0.09500
N 	N 	0.62249 0.32702 0.71208 -0.02200
O 	O 	0.69549 0.29006 0.69117 -0.09500
O 	O 	0.56303 0.32384 0.65051 -0.09500
H 	H 	0.97930 0.10922 0.27433 0.08400
H 	H 	0.02070 0.89078 0.72567 0.08400
H 	H 	0.52048 0.60401 0.22624 0.08400
H 	H 	0.47952 0.39599 0.77376 0.08400
