data_crystal

_cell_length_a 10.65658
_cell_length_b 10.73922
_cell_length_c 16.99648
_cell_angle_alpha 80.59636
_cell_angle_beta  99.56264
_cell_angle_gamma 118.53709

_symmetry_space_group_name_	'P 1'
_symmetry_space_group_name_H-M	'P 1'

loop_
_symmetry_equiv_pos_as_xyz
  x,y,z

loop_
_atom_site_label
_atom_site_type_symbol
_atom_site_fract_x
_atom_site_fract_y
_atom_site_fract_z
_atom_site_charge
C 	C 	0.35837 0.22306 0.62619 0.43000
C 	C 	0.29389 0.11020 0.77184 -0.02200
C 	C 	0.37174 0.63195 0.27444 -0.03100
C 	C 	0.41326 0.62097 0.60172 0.31000
C 	C 	0.34532 0.65081 0.20349 -0.08500
C 	C 	0.85573 0.68203 0.16426 -0.11500
C 	C 	0.87016 0.57651 0.21726 0.05100
C 	C 	0.86646 0.56869 0.29748 0.09200
C 	C 	0.84065 0.78416 0.27683 0.02000
C 	C 	0.84845 0.79186 0.19478 -0.00200
C 	C 	0.79517 0.41937 0.21402 0.01600
C 	C 	0.51249 0.70553 0.73659 -0.04000
C 	C 	0.79359 0.40753 0.30439 -0.12000
C 	C 	0.83938 0.66573 0.32769 -0.15800
C 	C 	0.26339 0.05518 0.18042 -0.16100
C 	C 	0.77729 0.61893 0.62674 0.41900
C 	C 	0.16342 0.08085 0.20889 0.10900
C 	C 	0.18318 0.11739 0.28496 0.01900
C 	C 	0.39572 0.08726 0.31390 -0.05900
C 	C 	0.37167 0.04159 0.23716 0.20900
C 	C 	0.09904 0.17785 0.17507 -0.20700
C 	C 	0.11832 0.21572 0.25937 -0.03400
C 	C 	0.49020 0.72041 0.81260 0.02500
C 	C 	0.30828 0.13786 0.33478 -0.09900
C 	C 	0.89065 0.70165 0.85614 0.40800
C 	C 	0.31589 0.70617 0.89862 0.44000
C 	C 	0.25244 0.05855 0.85119 0.34200
C 	C 	0.34919 0.22316 0.40104 0.43100
C 	C 	0.88958 0.69313 0.08449 0.41800
C 	C 	0.31729 0.69642 0.12221 0.41700
C 	C 	0.24657 0.03810 0.09520 0.36200
C 	C 	0.40394 0.62431 0.35923 0.29100
C 	C 	0.77382 0.62310 0.40098 0.45100
C 	C 	0.09154 0.52769 0.76262 -0.13100
C 	C 	0.35026 0.65195 0.83656 -0.19200
C 	C 	0.24076 0.54899 0.79019 0.06700
C 	C 	0.26370 0.53195 0.71573 0.00100
C 	C 	0.55027 0.41301 0.17791 -0.09300
C 	C 	0.59040 0.05064 0.20637 0.16200
C 	C 	0.01757 0.24151 0.70409 -0.32900
C 	C 	0.89009 0.36638 0.18987 0.20900
C 	C 	0.11593 0.50844 0.68078 0.03000
C 	C 	0.39568 0.62035 0.68487 -0.07700
C 	C 	0.82266 0.65642 0.70606 -0.06600
C 	C 	0.84973 0.68442 0.77390 -0.07700
C 	C 	0.32989 0.15648 0.70546 -0.08100
Cr	Cr	0.60844 0.38908 0.51968 1.54600
Cr	Cr	0.28864 0.40009 0.49076 1.53400
Cr	Cr	0.60294 0.71080 0.48951 1.53000
Cr	Cr	0.05253 0.94756 0.96421 1.38500
Cr	Cr	0.05997 0.62680 0.99292 1.43900
Cr	Cr	0.37332 0.93844 0.99537 1.42000
H 	H 	0.61814 0.76873 0.71612 0.03000
H 	H 	0.08228 0.62645 0.76243 0.03700
H 	H 	0.00902 0.43193 0.79414 0.02100
H 	H 	0.11772 0.59443 0.63374 0.00700
H 	H 	0.82278 0.86308 0.29870 0.01500
H 	H 	0.84327 0.87928 0.15524 0.02500
H 	H 	0.65765 0.36283 0.10748 0.11600
H 	H 	0.44405 0.34262 0.14809 0.07700
H 	H 	0.58048 0.52228 0.14893 0.07500
H 	H 	0.53749 0.40836 0.24175 0.05700
H 	H 	0.43620 0.89214 0.27028 0.08800
H 	H 	0.68487 0.35400 0.32480 0.07200
H 	H 	0.65419 0.11854 0.25561 0.01400
H 	H 	0.59667 0.11474 0.14788 0.03100
H 	H 	0.63706 0.97919 0.20222 -0.05900
H 	H 	0.92332 0.35400 0.62841 0.12800
H 	H 	0.96420 0.14894 0.66796 0.17400
H 	H 	0.95464 0.21693 0.75541 0.16200
H 	H 	0.12685 0.25582 0.72641 0.11400
H 	H 	0.84462 0.27282 0.15758 0.01200
H 	H 	0.86549 0.36562 0.33973 0.08000
H 	H 	0.48485 0.08760 0.35538 0.07200
H 	H 	0.98462 0.12052 0.15124 0.16100
H 	H 	0.16794 0.26945 0.13456 0.10300
H 	H 	0.19696 0.32883 0.26646 0.05900
H 	H 	0.01515 0.17669 0.28518 0.02700
H 	H 	0.57926 0.79656 0.84862 -0.01400
N 	N 	0.65370 0.36642 0.16727 -0.13400
N 	N 	0.44269 0.96627 0.22271 -0.27000
N 	N 	0.02294 0.36695 0.65421 -0.16200
O 	O 	0.75402 0.49759 0.60993 -0.47100
O 	O 	0.40618 0.82693 0.92066 -0.58500
O 	O 	0.35862 0.06287 0.90195 -0.47900
O 	O 	0.48142 0.27139 0.60063 -0.51600
O 	O 	0.16391 0.08546 0.05021 -0.34700
O 	O 	0.93520 0.81517 0.04577 -0.42000
O 	O 	0.91612 0.59669 0.06943 -0.36600
O 	O 	0.19231 0.63120 0.08617 -0.44600
O 	O 	0.40677 0.81948 0.09642 -0.43300
O 	O 	0.35917 0.05596 0.06488 -0.34900
O 	O 	0.16194 0.83760 0.98416 -0.92200
O 	O 	0.29508 0.53362 0.39789 -0.48800
O 	O 	0.26381 0.25455 0.58959 -0.49600
O 	O 	0.30082 0.53120 0.56089 -0.49200
O 	O 	0.49148 0.74402 0.56427 -0.46700
O 	O 	0.72629 0.69380 0.58301 -0.54800
O 	O 	0.74783 0.50019 0.43409 -0.49300
O 	O 	0.47568 0.27380 0.43763 -0.53100
O 	O 	0.25762 0.25716 0.41375 -0.50000
O 	O 	0.01986 0.42886 0.20637 -0.28500
O 	O 	0.48528 0.74662 0.38844 -0.46300
O 	O 	0.72055 0.69622 0.42001 -0.55200
O 	O 	0.50001 0.49999 0.49998 -0.75500
O 	O 	0.16332 0.09290 0.87445 -0.46900
O 	O 	0.93465 0.82208 0.88284 -0.55300
O 	O 	0.91552 0.60414 0.89367 -0.48600
O 	O 	0.19176 0.63811 0.92323 -0.61000
