data_crystal

_cell_length_a 6.95017
_cell_length_b 13.66252
_cell_length_c 20.44992
_cell_angle_alpha 102.35641
_cell_angle_beta  90.09213
_cell_angle_gamma 90.65772

_symmetry_space_group_name_	'P 1'
_symmetry_space_group_name_H-M	'P 1'

loop_
_symmetry_equiv_pos_as_xyz
  x,y,z

loop_
_atom_site_label
_atom_site_type_symbol
_atom_site_fract_x
_atom_site_fract_y
_atom_site_fract_z
_atom_site_charge
O 	O 	0.50686 0.59939 0.44924 -0.47500
O 	O 	0.18022 0.59460 0.58678 -0.49500
O 	O 	0.00450 0.40061 0.55076 -0.47800
C 	C 	0.34918 0.61457 0.61392 0.40400
O 	O 	0.17749 0.61129 0.45197 -0.48500
O 	O 	0.00175 0.41742 0.41499 -0.49000
C 	C 	0.34668 0.63733 0.43479 0.38300
O 	O 	0.50961 0.58258 0.58501 -0.49000
O 	O 	0.33742 0.43637 0.48802 -0.64200
V 	V 	0.06468 0.51180 0.50222 1.80600
O 	O 	0.67171 0.40540 0.41322 -0.50000
C 	C 	0.83963 0.38406 0.38654 0.40400
O 	O 	0.67444 0.38871 0.54803 -0.48600
C 	C 	0.84271 0.36214 0.56436 0.38800
V 	V 	0.56401 0.48820 0.49778 1.80600
O 	O 	0.84114 0.56363 0.51198 -0.64200
C 	C 	0.84889 0.11009 0.60753 -0.07400
H 	H 	0.84145 0.16284 0.51614 0.02900
H 	H 	0.85223 0.98286 0.68620 0.04600
H 	H 	0.84654 0.03220 0.58134 0.05500
C 	C 	0.84954 0.28445 0.60292 -0.10900
C 	C 	0.86540 0.31034 0.92514 0.02700
C 	C 	0.86306 0.38598 0.88977 -0.04600
C 	C 	0.85983 0.36300 0.82029 -0.02400
C 	C 	0.85849 0.26232 0.78365 -0.00300
C 	C 	0.85962 0.18333 0.81996 0.05400
C 	C 	0.85581 0.23819 0.71204 -0.01800
C 	C 	0.85331 0.13628 0.67778 0.04400
C 	C 	0.85434 0.06052 0.71332 -0.04600
C 	C 	0.85729 0.08196 0.78287 -0.02200
C 	C 	0.85488 0.31173 0.67274 0.01800
C 	C 	0.84625 0.18394 0.57030 0.03800
C 	C 	0.86362 0.20989 0.89164 -0.11000
H 	H 	0.85683 0.39087 0.69426 0.03400
H 	H 	0.86889 0.33033 0.97938 0.03300
H 	H 	0.85839 0.42655 0.79705 0.04000
H 	H 	0.86427 0.46351 0.91649 0.04600
C 	C 	0.00504 0.28922 0.28505 0.01800
C 	C 	0.84195 0.31558 0.31977 -0.16900
H 	H 	0.14197 0.31835 0.30702 0.04300
H 	H 	0.70352 0.28692 0.29950 0.08700
C 	C 	0.01374 0.22103 0.21747 0.01800
C 	C 	0.85884 0.18338 0.18031 -0.17000
H 	H 	0.15654 0.20204 0.19760 0.04000
H 	H 	0.71480 0.20172 0.19859 0.08900
C 	C 	0.20876 0.76867 0.78960 0.02000
C 	C 	0.36376 0.82024 0.81834 -0.16600
H 	H 	0.07614 0.77208 0.81776 0.05000
H 	H 	0.49873 0.81613 0.79158 0.09300
C 	C 	0.20505 0.70627 0.72016 0.02100
C 	C 	0.36197 0.67919 0.68190 -0.17000
H 	H 	0.06416 0.67944 0.70069 0.04200
H 	H 	0.50508 0.70096 0.70105 0.09000
C 	C 	0.38609 0.88767 0.38764 -0.07100
H 	H 	0.38259 0.83737 0.48008 0.03000
H 	H 	0.40268 0.01303 0.30521 0.04600
H 	H 	0.40052 0.96569 0.41292 0.05200
C 	C 	0.35720 0.71402 0.39472 -0.10300
C 	C 	0.33741 0.68558 0.07127 0.03000
C 	C 	0.32619 0.60952 0.10663 -0.04900
C 	C 	0.33302 0.63180 0.17636 -0.02100
C 	C 	0.35151 0.73205 0.21291 -0.00900
C 	C 	0.36292 0.80981 0.17620 0.06400
C 	C 	0.35907 0.75772 0.28450 -0.01300
C 	C 	0.37789 0.86023 0.31745 0.03800
C 	C 	0.38849 0.93480 0.28033 -0.04300
C 	C 	0.38113 0.91021 0.21091 -0.04900
C 	C 	0.34876 0.68544 0.32481 0.01300
C 	C 	0.37592 0.81496 0.42599 0.03400
C 	C 	0.35573 0.78545 0.10523 -0.11600
H 	H 	0.33434 0.60637 0.30374 0.03500
H 	H 	0.33171 0.66653 0.01706 0.03200
H 	H 	0.32340 0.56863 0.19995 0.03900
H 	H 	0.31199 0.53237 0.07974 0.04600
H 	H 	0.38998 0.97099 0.18461 0.05400
O 	O 	0.20323 0.91731 0.91502 -0.48300
O 	O 	0.53550 0.88869 0.04804 -0.48300
O 	O 	0.71108 0.08261 0.08500 -0.49200
C 	C 	0.36636 0.86280 0.06535 0.38600
O 	O 	0.53263 0.90537 0.91323 -0.49200
O 	O 	0.70819 0.09941 0.94923 -0.47000
C 	C 	0.36426 0.88415 0.88655 0.40400
O 	O 	0.20612 0.90051 0.05079 -0.47400
O 	O 	0.37536 0.06357 0.01199 -0.64300
V 	V 	0.64817 0.98820 0.99778 1.80500
O 	O 	0.03824 0.11139 0.95194 -0.47800
C 	C 	0.87015 0.13616 0.93395 0.38800
O 	O 	0.04112 0.09471 0.08675 -0.50000
C 	C 	0.87267 0.11574 0.11350 0.40600
V 	V 	0.14881 0.01193 0.00218 1.80600
O 	O 	0.87175 0.93643 0.98801 -0.64100
C 	C 	0.85593 0.99522 0.81234 0.08000
N 	N 	0.85441 0.92456 0.83486 -0.11400
