data_crystal

_cell_length_a 10.88014
_cell_length_b 10.75602
_cell_length_c 9.56347
_cell_angle_alpha 90.26775
_cell_angle_beta  91.51953
_cell_angle_gamma 89.76351

_symmetry_space_group_name_	'P 1'
_symmetry_space_group_name_H-M	'P 1'

loop_
_symmetry_equiv_pos_as_xyz
  x,y,z

loop_
_atom_site_label
_atom_site_type_symbol
_atom_site_fract_x
_atom_site_fract_y
_atom_site_fract_z
_atom_site_charge
C 	C 	0.49988 0.26277 0.49948 0.32500
C 	C 	0.82106 0.51524 0.98878 -0.01700
C 	C 	0.82164 0.39304 0.03793 -0.03700
C 	C 	0.26221 0.49948 0.49770 0.31200
C 	C 	0.85700 0.29558 0.95049 -0.02000
C 	C 	0.89319 0.32036 0.81432 -0.04800
C 	C 	0.89227 0.44280 0.76426 0.02300
C 	C 	0.60626 0.06361 0.52508 0.03400
C 	C 	0.49888 0.12981 0.49596 -0.08400
C 	C 	0.39409 0.06663 0.44602 -0.03800
C 	C 	0.39200 0.93605 0.44660 0.09200
C 	C 	0.17386 0.60205 0.95848 -0.04100
C 	C 	0.49708 0.87087 0.49763 -0.14300
C 	C 	0.60538 0.93594 0.52618 0.05200
C 	C 	0.69432 0.93037 0.64766 -0.09900
C 	C 	0.49997 0.73736 0.50005 0.34500
C 	C 	0.69557 0.07173 0.64554 -0.07600
C 	C 	0.47005 0.60479 0.07332 0.05600
C 	C 	0.52100 0.39366 0.07422 0.01000
C 	C 	0.52132 0.39369 0.92591 0.01100
C 	C 	0.47076 0.60486 0.92614 0.05400
C 	C 	0.53601 0.72626 0.92406 -0.09200
C 	C 	0.92971 0.53079 0.38170 -0.02100
C 	C 	0.53363 0.72712 0.08232 -0.09100
C 	C 	0.73776 0.50012 0.50221 0.31400
C 	C 	0.13134 0.69893 0.04226 -0.01900
C 	C 	0.09683 0.67529 0.17926 -0.05300
C 	C 	0.10680 0.55472 0.23413 0.02300
C 	C 	0.14875 0.45751 0.14900 -0.04100
C 	C 	0.18293 0.48145 0.01190 -0.01400
C 	C 	0.27708 0.86860 0.39947 -0.20500
C 	C 	0.87173 0.50135 0.50585 -0.08300
C 	C 	0.94325 0.47050 0.62637 0.02300
C 	C 	0.07014 0.46718 0.61765 -0.02000
C 	C 	0.12821 0.49717 0.49360 -0.08300
C 	C 	0.05657 0.52743 0.37274 0.02300
C 	C 	0.85678 0.54035 0.85260 -0.04100
Cu	Cu	0.49999 0.49998 0.64067 0.92000
Cu	Cu	0.50001 0.50002 0.35933 0.92000
H 	H 	0.20020 0.62071 0.85236 0.04700
H 	H 	0.54101 0.30796 0.12874 0.03600
H 	H 	0.12387 0.79209 0.00055 0.02800
H 	H 	0.54168 0.30800 0.87190 0.03600
H 	H 	0.63030 0.71706 0.88322 0.05400
H 	H 	0.47834 0.80088 0.87568 0.05600
H 	H 	0.62638 0.72102 0.13343 0.05700
H 	H 	0.47336 0.80131 0.12445 0.05600
H 	H 	0.06069 0.75038 0.24204 0.03800
H 	H 	0.15336 0.36328 0.18832 0.04900
H 	H 	0.21598 0.40642 0.94698 0.03800
H 	H 	0.79453 0.37373 0.14365 0.04700
H 	H 	0.87575 0.55652 0.28957 0.04700
H 	H 	0.12395 0.44098 0.70979 0.04800
H 	H 	0.85870 0.63565 0.81661 0.04400
H 	H 	0.79406 0.59072 0.05644 0.03400
H 	H 	0.24369 0.80983 0.48564 0.07800
H 	H 	0.20239 0.93422 0.36798 0.06600
H 	H 	0.29729 0.80873 0.30810 0.08300
H 	H 	0.85782 0.20105 0.98879 0.03200
H 	H 	0.92422 0.24477 0.74882 0.04100
H 	H 	0.31319 0.11885 0.41248 0.04600
H 	H 	0.65304 0.89272 0.74313 0.05400
H 	H 	0.78356 0.88779 0.61919 0.04900
H 	H 	0.65549 0.11520 0.73983 0.05500
H 	H 	0.78509 0.11048 0.61397 0.04700
N 	N 	0.50079 0.50093 0.14793 -0.18500
N 	N 	0.50079 0.50089 0.85202 -0.18400
O 	O 	0.50000 0.31964 0.61881 -0.38600
O 	O 	0.50001 0.31968 0.38123 -0.38600
O 	O 	0.31964 0.49999 0.61879 -0.37800
O 	O 	0.31965 0.50003 0.38121 -0.37700
O 	O 	0.49999 0.68032 0.61877 -0.39300
O 	O 	0.50000 0.68036 0.38119 -0.39400
O 	O 	0.68035 0.49997 0.61879 -0.37600
O 	O 	0.68036 0.50001 0.38121 -0.37800
