data_crystal

_cell_length_a 11.70562
_cell_length_b 18.54239
_cell_length_c 10.19966
_cell_angle_alpha 90.02184
_cell_angle_beta  110.83728
_cell_angle_gamma 90.02580

_symmetry_space_group_name_	'P 1'
_symmetry_space_group_name_H-M	'P 1'

loop_
_symmetry_equiv_pos_as_xyz
  x,y,z

loop_
_atom_site_label
_atom_site_type_symbol
_atom_site_fract_x
_atom_site_fract_y
_atom_site_fract_z
_atom_site_charge
C 	C 	0.06902 0.64837 0.13769 0.43400
C 	C 	0.92998 0.35233 0.86175 0.38500
C 	C 	0.93276 0.14923 0.86176 0.40300
C 	C 	0.07930 0.85600 0.14220 0.42700
C 	C 	0.44283 0.47532 0.59150 0.06100
C 	C 	0.56050 0.52500 0.40984 0.06500
C 	C 	0.53625 0.97712 0.36531 0.04400
C 	C 	0.37087 0.05338 0.45186 0.09200
C 	C 	0.39498 0.93290 0.94262 -0.08100
C 	C 	0.63899 0.06112 0.98323 -0.00300
C 	C 	0.63337 0.43837 0.98394 -0.06600
C 	C 	0.39042 0.56498 0.97148 -0.09400
C 	C 	0.50917 0.95586 0.97269 -0.00800
C 	C 	0.53848 0.03280 0.99432 -0.05700
C 	C 	0.53690 0.46591 0.00662 0.02400
C 	C 	0.49641 0.54070 0.96847 -0.03400
C 	C 	0.03381 0.93010 0.12202 -0.20400
C 	C 	0.01131 0.08485 0.89424 -0.21400
C 	C 	0.00146 0.41935 0.89706 -0.15000
C 	C 	0.99578 0.58227 0.10099 -0.21500
C 	C 	0.04285 0.96925 0.01584 0.06100
C 	C 	0.02500 0.04727 0.01083 0.04000
C 	C 	0.98764 0.46221 0.99694 -0.04900
C 	C 	0.00692 0.54008 0.99835 0.03000
C 	C 	0.43695 0.63797 0.37608 0.30100
C 	C 	0.56405 0.36194 0.62468 0.29300
C 	C 	0.52748 0.14902 0.55568 0.41700
C 	C 	0.43417 0.86070 0.37211 0.29700
C 	C 	0.37343 0.64252 0.97136 0.35800
C 	C 	0.64902 0.36046 0.98700 0.25400
C 	C 	0.65054 0.13968 0.98536 0.22900
C 	C 	0.37358 0.85730 0.96895 0.34600
C 	C 	0.54621 0.43839 0.58308 -0.08700
C 	C 	0.45851 0.56205 0.41994 -0.09100
C 	C 	0.44276 0.93867 0.39556 -0.07800
C 	C 	0.48609 0.08384 0.46996 -0.13800
C 	C 	0.38014 0.45492 0.68199 -0.07800
C 	C 	0.61470 0.54196 0.30950 -0.08300
C 	C 	0.61124 0.94937 0.29301 -0.06700
C 	C 	0.27176 0.09524 0.45582 -0.09100
C 	C 	0.27026 0.48758 0.67191 0.03600
C 	C 	0.71269 0.50156 0.30152 0.03700
C 	C 	0.71624 0.98569 0.29529 0.03100
C 	C 	0.17080 0.06276 0.47177 0.03900
C 	C 	0.21489 0.53542 0.56335 -0.11300
C 	C 	0.76392 0.44792 0.40074 -0.10900
C 	C 	0.75362 0.04616 0.37973 -0.11000
C 	C 	0.16624 0.98819 0.48463 -0.12100
C 	C 	0.26652 0.54243 0.45922 0.09800
C 	C 	0.73338 0.44972 0.52156 0.09600
C 	C 	0.69363 0.06082 0.47213 0.09800
C 	C 	0.26918 0.94684 0.49274 0.09600
C 	C 	0.39302 0.53178 0.49823 -0.01200
C 	C 	0.61168 0.46852 0.50304 -0.01300
C 	C 	0.56930 0.04395 0.42840 0.01200
C 	C 	0.36064 0.97769 0.44643 -0.03100
Cr	Cr	0.18761 0.75000 0.97986 1.51700
Cr	Cr	0.81239 0.25000 0.02014 1.53100
Cr	Cr	0.24581 0.75000 0.34164 1.53000
Cr	Cr	0.75419 0.25000 0.65836 1.53900
Cr	Cr	0.48576 0.75000 0.21991 1.52200
Cr	Cr	0.51424 0.25000 0.78009 1.52000
H 	H 	0.22417 0.47210 0.74192 0.02900
H 	H 	0.75004 0.51360 0.22134 0.03900
H 	H 	0.76920 0.96536 0.23593 0.03500
H 	H 	0.10048 0.09653 0.48399 0.04200
H 	H 	0.41452 0.41486 0.76195 0.05400
H 	H 	0.57900 0.58320 0.23234 0.06100
H 	H 	0.59092 0.90174 0.23093 0.05300
H 	H 	0.27205 0.15343 0.44742 0.06300
H 	H 	0.47549 0.06810 0.02036 0.08000
H 	H 	0.58279 0.91684 0.99329 0.02300
H 	H 	0.55631 0.57879 0.94360 0.03600
H 	H 	0.48317 0.43014 0.04623 0.05000
H 	H 	0.00190 0.07142 0.09412 0.04700
H 	H 	0.06049 0.94306 0.93037 0.00300
H 	H 	0.04093 0.56185 0.92057 0.03100
H 	H 	0.94622 0.44145 0.06856 0.06800
H 	H 	0.03937 0.06159 0.81328 0.10300
H 	H 	0.01151 0.95618 0.20505 0.11400
H 	H 	0.95407 0.56172 0.17284 0.10300
H 	H 	0.04812 0.43883 0.82950 0.07900
O 	O 	0.26771 0.66820 0.90211 -0.46400
O 	O 	0.73229 0.33180 0.09789 -0.39300
O 	O 	0.73229 0.16820 0.09789 -0.38600
O 	O 	0.26771 0.83180 0.90211 -0.47700
O 	O 	0.09948 0.67446 0.03885 -0.51300
O 	O 	0.90052 0.32554 0.96115 -0.53300
O 	O 	0.90052 0.17446 0.96115 -0.53800
O 	O 	0.09948 0.82554 0.03885 -0.51000
O 	O 	0.11672 0.66921 0.26766 -0.46600
O 	O 	0.88328 0.33079 0.73234 -0.45700
O 	O 	0.88328 0.16921 0.73234 -0.46500
O 	O 	0.11672 0.83079 0.26766 -0.46800
O 	O 	0.36671 0.67544 0.42759 -0.47300
O 	O 	0.63329 0.32456 0.57241 -0.46600
O 	O 	0.63329 0.17544 0.57241 -0.51600
O 	O 	0.36671 0.82456 0.42759 -0.47600
O 	O 	0.53487 0.66939 0.37176 -0.43700
O 	O 	0.46513 0.33061 0.62824 -0.43500
O 	O 	0.46513 0.16939 0.62824 -0.48600
O 	O 	0.53487 0.83061 0.37176 -0.43500
O 	O 	0.45308 0.67448 0.07516 -0.50000
O 	O 	0.54692 0.32552 0.92484 -0.47800
O 	O 	0.54692 0.17448 0.92484 -0.46100
O 	O 	0.45308 0.82552 0.07516 -0.49400
O 	O 	0.30639 0.75000 0.18047 -0.73900
O 	O 	0.69361 0.25000 0.81953 -0.75300
C 	C 	0.10143 0.57313 0.55621 0.29600
O 	O 	0.03004 0.59566 0.44474 -0.24600
O 	O 	0.07855 0.58540 0.67976 -0.31600
H 	H 	0.00368 0.61645 0.66430 0.14400
C 	C 	0.86820 0.40406 0.39615 0.30800
O 	O 	0.90917 0.35556 0.48095 -0.26900
O 	O 	0.91900 0.41716 0.29388 -0.31600
H 	H 	0.98807 0.38266 0.30063 0.14000
C 	C 	0.85229 0.09360 0.37338 0.31600
O 	O 	0.88253 0.14637 0.45007 -0.27300
O 	O 	0.90571 0.08107 0.27337 -0.31500
H 	H 	0.95984 0.12275 0.26772 0.13500
C 	C 	0.06174 0.95384 0.50938 0.30300
O 	O 	0.01732 0.89829 0.44769 -0.25100
O 	O 	0.02028 0.98154 0.61077 -0.31600
H 	H 	0.96103 0.94740 0.63119 0.13500
C 	C 	0.19871 0.50426 0.32485 -0.20700
H 	H 	0.21228 0.53354 0.23811 0.08300
H 	H 	0.10167 0.49712 0.31029 0.10500
H 	H 	0.23503 0.44874 0.32578 0.08300
C 	C 	0.82482 0.49614 0.62923 -0.20200
H 	H 	0.91886 0.48061 0.64061 0.08900
H 	H 	0.81252 0.49449 0.72998 0.07500
H 	H 	0.81291 0.55346 0.59508 0.07600
C 	C 	0.76156 0.03724 0.61935 -0.20300
H 	H 	0.72564 0.06468 0.69223 0.08000
H 	H 	0.85836 0.04958 0.64695 0.10200
H 	H 	0.75260 0.97801 0.62979 0.06900
C 	C 	0.30042 0.88883 0.60481 -0.18400
H 	H 	0.26999 0.90546 0.68948 0.08400
H 	H 	0.24847 0.83839 0.56491 0.04900
H 	H 	0.40055 0.87942 0.65280 0.08500
C 	C 	0.72717 0.01563 0.94276 -0.17200
H 	H 	0.77690 0.97750 0.02673 0.08100
H 	H 	0.67807 0.98469 0.84576 0.05600
H 	H 	0.79383 0.05052 0.92209 0.06600
C 	C 	0.28909 0.98555 0.90355 -0.14700
H 	H 	0.29925 0.02771 0.83100 0.06900
H 	H 	0.20219 0.95807 0.84647 0.07100
H 	H 	0.28361 0.01110 0.99960 0.06000
C 	C 	0.31229 0.51969 0.02914 -0.06900
H 	H 	0.36580 0.50315 0.13824 0.04700
H 	H 	0.23553 0.55217 0.03325 0.06000
H 	H 	0.27719 0.47050 0.96651 0.03200
C 	C 	0.70566 0.48190 0.91859 -0.13900
H 	H 	0.64635 0.51176 0.82531 0.05800
H 	H 	0.76429 0.52074 0.99539 0.05500
H 	H 	0.75931 0.44407 0.88161 0.05300
