data_crystal

_cell_length_a 27.79621
_cell_length_b 8.65917
_cell_length_c 7.50709
_cell_angle_alpha 102.01505
_cell_angle_beta  95.55517
_cell_angle_gamma 93.14486

_symmetry_space_group_name_	'P 1'
_symmetry_space_group_name_H-M	'P 1'

loop_
_symmetry_equiv_pos_as_xyz
  x,y,z

loop_
_atom_site_label
_atom_site_type_symbol
_atom_site_fract_x
_atom_site_fract_y
_atom_site_fract_z
_atom_site_charge
O 	O 	0.50350 0.28612 0.61978 -0.33100
O 	O 	0.49650 0.71388 0.38022 -0.33300
O 	O 	0.49441 0.25678 0.30836 -0.32800
O 	O 	0.50559 0.74322 0.69164 -0.32200
C 	C 	0.49631 0.20072 0.45562 0.31400
C 	C 	0.50383 0.79927 0.54433 0.31500
O 	O 	0.43481 0.51470 0.65569 -0.33900
O 	O 	0.56519 0.48530 0.34431 -0.34300
O 	O 	0.42572 0.48535 0.34428 -0.34500
O 	O 	0.57428 0.51465 0.65572 -0.34200
C 	C 	0.40765 0.50092 0.50038 0.31200
C 	C 	0.59241 0.49998 0.49961 0.31200
Cu	Cu	0.50538 0.51738 0.68438 0.93300
Cu	Cu	0.49462 0.48262 0.31562 0.93200
C 	C 	0.17469 0.38050 0.40286 0.20800
C 	C 	0.82550 0.62796 0.55717 0.21000
O 	O 	0.19619 0.24903 0.33155 -0.15500
O 	O 	0.80435 0.76103 0.62557 -0.14800
N 	N 	0.20242 0.51575 0.48582 -0.16600
N 	N 	0.79766 0.48944 0.48971 -0.16500
C 	C 	0.18218 0.65317 0.55321 0.21900
C 	C 	0.81768 0.35357 0.41406 0.21700
C 	C 	0.27729 0.55033 0.35187 -0.06200
C 	C 	0.71552 0.46169 0.33103 -0.06200
C 	C 	0.32715 0.54477 0.35245 0.03700
C 	C 	0.66562 0.46645 0.33199 0.03500
C 	C 	0.33192 0.47151 0.64775 -0.00100
C 	C 	0.67578 0.52278 0.66410 0.00000
C 	C 	0.28141 0.47328 0.64760 0.05400
C 	C 	0.72607 0.51679 0.66469 0.05300
C 	C 	0.25412 0.51462 0.49730 0.11000
C 	C 	0.74609 0.48725 0.49581 0.11000
C 	C 	0.10194 0.51627 0.46479 0.07900
C 	C 	0.89774 0.49472 0.47909 0.07900
C 	C 	0.12410 0.37742 0.39338 -0.06900
C 	C 	0.87583 0.63288 0.55467 -0.06700
C 	C 	0.09551 0.23831 0.31376 0.02100
C 	C 	0.90444 0.77320 0.62836 0.02200
C 	C 	0.13122 0.65868 0.53800 -0.09800
C 	C 	0.86848 0.35150 0.41073 -0.09600
C 	C 	0.35489 0.50574 0.50050 -0.05000
C 	C 	0.64529 0.49718 0.49849 -0.05000
H 	H 	0.35336 0.44201 0.76238 0.09200
H 	H 	0.66049 0.54529 0.79358 0.08800
H 	H 	0.11169 0.13141 0.25356 0.06400
H 	H 	0.88852 0.87964 0.69166 0.06900
C 	C 	0.97079 0.36160 0.39586 0.03600
C 	C 	0.02857 0.65163 0.53592 0.03700
C 	C 	0.97756 0.64560 0.54353 0.01800
C 	C 	0.02190 0.36736 0.38965 0.01800
C 	C 	0.94887 0.50059 0.47243 -0.03000
C 	C 	0.05061 0.51187 0.46332 -0.03100
C 	C 	0.94088 0.21960 0.33257 -0.09100
C 	C 	0.05834 0.79437 0.59533 -0.09100
C 	C 	0.89094 0.21263 0.34019 0.12700
C 	C 	0.10857 0.79976 0.59626 0.12800
O 	O 	0.78819 0.22218 0.34120 -0.15000
O 	O 	0.21153 0.78150 0.63938 -0.14500
C 	C 	0.04556 0.23314 0.31099 -0.05000
C 	C 	0.95417 0.77953 0.62438 -0.04800
H 	H 	0.73066 0.43845 0.20146 0.09200
H 	H 	0.25629 0.58103 0.23676 0.08900
H 	H 	0.95518 0.10813 0.28111 0.07300
H 	H 	0.04365 0.90704 0.63647 0.07400
H 	H 	0.02682 0.12096 0.24463 0.05200
H 	H 	0.97308 0.89179 0.68947 0.05500
C 	C 	0.48665 0.03504 0.44216 0.02500
C 	C 	0.51373 0.96487 0.55749 0.01900
N 	N 	0.48651 0.45643 0.03851 -0.11300
N 	N 	0.51349 0.54357 0.96149 -0.09100
N 	N 	0.47019 0.30857 0.93327 0.01200
O 	O 	0.49589 0.18904 0.94286 -0.04300
O 	O 	0.42457 0.28087 0.87112 -0.06700
N 	N 	0.53175 0.68878 0.06868 0.00300
O 	O 	0.50819 0.81307 0.06023 -0.05500
O 	O 	0.57751 0.70885 0.13036 -0.07600
N 	N 	0.25886 0.43024 0.79761 -0.00900
O 	O 	0.28233 0.35436 0.90662 -0.07300
O 	O 	0.21553 0.46916 0.83034 -0.07700
N 	N 	0.75617 0.54054 0.83651 -0.00900
O 	O 	0.74411 0.63557 0.98089 -0.07300
O 	O 	0.79414 0.46094 0.85262 -0.07800
H 	H 	0.64301 0.44570 0.20217 0.06800
H 	H 	0.34404 0.57252 0.23762 0.06900
N 	N 	0.86440 0.06067 0.28161 -0.02200
O 	O 	0.84462 0.99607 0.40122 -0.07300
O 	O 	0.86916 0.97340 0.12172 -0.09100
N 	N 	0.13531 0.95186 0.64830 -0.02500
O 	O 	0.16031 0.00233 0.53113 -0.06900
O 	O 	0.12673 0.05167 0.79499 -0.08100
N 	N 	0.44215 0.95986 0.33587 0.00100
O 	O 	0.42726 0.00036 0.18352 -0.05400
O 	O 	0.41206 0.87648 0.40777 -0.07700
N 	N 	0.55842 0.03955 0.66295 0.00400
O 	O 	0.57408 0.99604 0.81263 -0.04900
O 	O 	0.58798 0.12550 0.59196 -0.07200
