data_crystal

_cell_length_a 22.54969
_cell_length_b 13.01747
_cell_length_c 26.98850
_cell_angle_alpha 90.07372
_cell_angle_beta  90.30511
_cell_angle_gamma 89.88064

_symmetry_space_group_name_	'P 1'
_symmetry_space_group_name_H-M	'P 1'

loop_
_symmetry_equiv_pos_as_xyz
  x,y,z

loop_
_atom_site_label
_atom_site_type_symbol
_atom_site_fract_x
_atom_site_fract_y
_atom_site_fract_z
_atom_site_charge
C 	C 	0.72090 0.34480 0.17838 0.42300
C 	C 	0.27909 0.34486 0.82160 0.42200
C 	C 	0.22090 0.84480 0.17838 0.43100
C 	C 	0.77909 0.84486 0.82160 0.43000
C 	C 	0.47574 0.16622 0.87125 -0.13600
C 	C 	0.52458 0.16617 0.12862 -0.13500
C 	C 	0.97571 0.66619 0.87126 -0.11900
C 	C 	0.02454 0.66622 0.12863 -0.12200
C 	C 	0.51126 0.26210 0.10617 0.03900
C 	C 	0.48883 0.26216 0.89379 0.03900
C 	C 	0.01129 0.76217 0.10617 0.03200
C 	C 	0.98886 0.76213 0.89378 0.02400
C 	C 	0.50572 0.26810 0.05322 -0.01800
C 	C 	0.49451 0.26814 0.94674 -0.01900
C 	C 	0.00572 0.76815 0.05321 -0.00200
C 	C 	0.99452 0.76813 0.94674 0.00300
C 	C 	0.50384 0.17461 0.02596 0.00700
C 	C 	0.49682 0.17463 0.97386 0.00800
C 	C 	0.00377 0.67465 0.02597 0.00400
C 	C 	0.99675 0.67464 0.97387 -0.00500
C 	C 	0.50310 0.36238 0.02629 -0.01200
C 	C 	0.49688 0.36240 0.97381 -0.01200
C 	C 	0.00314 0.86242 0.02626 -0.03900
C 	C 	0.99692 0.86241 0.97378 -0.04500
C 	C 	0.73839 0.96285 0.12845 -0.08600
C 	C 	0.26159 0.96280 0.87150 -0.08600
C 	C 	0.23840 0.46285 0.12845 -0.14300
C 	C 	0.76159 0.46279 0.87150 -0.14300
C 	C 	0.78808 0.99158 0.10068 0.04900
C 	C 	0.21188 0.99187 0.89930 0.05000
C 	C 	0.28806 0.49169 0.10067 0.03800
C 	C 	0.71187 0.49180 0.89929 0.03800
C 	C 	0.78836 0.97771 0.04962 -0.02600
C 	C 	0.21151 0.97774 0.95034 -0.02600
C 	C 	0.28834 0.47781 0.04961 -0.07600
C 	C 	0.71149 0.47767 0.95033 -0.07700
C 	C 	0.73934 0.93432 0.02525 0.01400
C 	C 	0.26044 0.93371 0.97466 0.01400
C 	C 	0.23934 0.43430 0.02525 0.02600
C 	C 	0.76043 0.43369 0.97466 0.02700
C 	C 	0.69087 0.90058 0.05329 -0.05800
C 	C 	0.30893 0.89964 0.94658 -0.05800
C 	C 	0.19090 0.40047 0.05331 -0.07600
C 	C 	0.80894 0.39969 0.94658 -0.07700
C 	C 	0.55309 0.15785 0.17789 0.41800
C 	C 	0.44697 0.15783 0.82208 0.41900
C 	C 	0.05309 0.65786 0.17789 0.41500
C 	C 	0.94697 0.65783 0.82208 0.41300
C 	C 	0.69054 0.91422 0.10447 0.01800
C 	C 	0.30937 0.91360 0.89542 0.01800
C 	C 	0.19057 0.41411 0.10449 0.03900
C 	C 	0.80938 0.41364 0.89543 0.04000
C 	C 	0.71682 0.83208 0.94942 -0.07600
C 	C 	0.28289 0.83120 0.05041 -0.07600
C 	C 	0.21688 0.33200 0.94943 -0.07600
C 	C 	0.78291 0.33123 0.05041 -0.07600
C 	C 	0.72549 0.81217 0.89945 0.04500
C 	C 	0.27430 0.81145 0.10038 0.04500
C 	C 	0.22555 0.31209 0.89947 0.03800
C 	C 	0.77432 0.31148 0.10039 0.03800
C 	C 	0.77936 0.97210 0.89082 0.08000
C 	C 	0.22048 0.97181 0.10920 0.08000
C 	C 	0.27932 0.47212 0.89082 0.04000
C 	C 	0.72046 0.47180 0.10920 0.04000
C 	C 	0.76885 0.99377 0.94063 -0.04300
C 	C 	0.23092 0.99331 0.05939 -0.04300
C 	C 	0.26880 0.49379 0.94063 -0.07600
C 	C 	0.73089 0.49329 0.05938 -0.07600
C 	C 	0.74024 0.92136 0.97093 0.02900
C 	C 	0.25948 0.92065 0.02899 0.02900
C 	C 	0.24024 0.42133 0.97093 0.02600
C 	C 	0.75948 0.42065 0.02899 0.02600
C 	C 	0.75909 0.87977 0.87033 -0.15200
C 	C 	0.24080 0.87938 0.12961 -0.15200
C 	C 	0.25909 0.37974 0.87034 -0.14200
C 	C 	0.74080 0.37939 0.12962 -0.14300
C 	C 	0.53009 0.16230 0.37173 -0.15000
C 	C 	0.46770 0.16153 0.62753 -0.15100
C 	C 	0.04249 0.66261 0.37548 -0.14400
C 	C 	0.97821 0.66252 0.63125 -0.13800
C 	C 	0.50293 0.25025 0.39136 0.04000
C 	C 	0.49243 0.25032 0.60703 0.04100
C 	C 	0.00163 0.73206 0.39544 0.04600
C 	C 	0.99235 0.75640 0.60904 0.03500
C 	C 	0.48788 0.25297 0.44170 -0.07900
C 	C 	0.50463 0.25346 0.55625 -0.07800
C 	C 	0.99254 0.73424 0.44676 -0.08400
C 	C 	0.01127 0.75859 0.55978 -0.07000
C 	C 	0.73098 0.00320 0.17893 0.33000
C 	C 	0.26903 0.00318 0.82107 0.33100
C 	C 	0.23098 0.50319 0.17893 0.42200
C 	C 	0.76903 0.50318 0.82107 0.42400
C 	C 	0.50248 0.16964 0.47257 0.02700
C 	C 	0.48976 0.16989 0.52573 0.02800
C 	C 	0.02587 0.66996 0.47836 0.03200
C 	C 	0.01492 0.66772 0.53207 0.02500
C 	C 	0.52878 0.08197 0.45237 -0.08200
C 	C 	0.46577 0.08126 0.54669 -0.08300
C 	C 	0.06735 0.60220 0.45807 -0.07600
C 	C 	0.00543 0.57342 0.55550 -0.07300
C 	C 	0.54105 0.07743 0.40254 0.04000
C 	C 	0.45640 0.07616 0.59700 0.04000
C 	C 	0.07521 0.59805 0.40721 0.04000
C 	C 	0.98774 0.57073 0.60467 0.03600
C 	C 	0.73101 0.99591 0.37976 0.00400
C 	C 	0.26572 0.99265 0.62072 0.00300
C 	C 	0.23545 0.48013 0.37531 -0.11300
C 	C 	0.76744 0.49276 0.62075 -0.10600
C 	C 	0.68513 0.94489 0.40434 -0.01300
C 	C 	0.31181 0.94710 0.59403 -0.01300
C 	C 	0.22842 0.38085 0.39344 0.01900
C 	C 	0.81570 0.45173 0.59470 0.01500
C 	C 	0.68311 0.94527 0.45595 -0.04000
C 	C 	0.31084 0.94961 0.54237 -0.04000
C 	C 	0.23202 0.36446 0.44427 -0.05400
C 	C 	0.81559 0.45316 0.54300 -0.04900
C 	C 	0.72727 0.99558 0.48352 0.03700
C 	C 	0.26386 0.99767 0.51688 0.03600
C 	C 	0.24187 0.44752 0.47654 -0.00600
C 	C 	0.76791 0.49750 0.51696 -0.00900
C 	C 	0.76842 0.05877 0.45926 0.09000
C 	C 	0.22169 0.05525 0.54330 0.08800
C 	C 	0.25104 0.54680 0.45843 0.10800
C 	C 	0.72509 0.55415 0.54302 0.11600
C 	C 	0.77244 0.05221 0.40752 -0.10200
C 	C 	0.22032 0.04425 0.59489 -0.10100
C 	C 	0.24395 0.56307 0.40759 -0.03700
C 	C 	0.72170 0.54148 0.59432 -0.03700
C 	C 	0.79440 0.91665 0.54603 0.13100
C 	C 	0.19679 0.92865 0.45126 0.12900
C 	C 	0.30787 0.40549 0.54610 0.11000
C 	C 	0.70061 0.42332 0.45262 0.10800
C 	C 	0.72132 0.34852 0.32111 0.41700
C 	C 	0.27943 0.34687 0.67833 0.41800
C 	C 	0.22127 0.84882 0.32099 0.41200
C 	C 	0.77844 0.84859 0.67898 0.40700
C 	C 	0.80270 0.87138 0.59246 -0.05100
C 	C 	0.19088 0.88211 0.40494 -0.04800
C 	C 	0.31423 0.37062 0.59457 -0.03900
C 	C 	0.69374 0.37658 0.40644 -0.03700
C 	C 	0.70793 0.93627 0.62015 -0.01100
C 	C 	0.29013 0.93326 0.38202 -0.01000
C 	C 	0.21166 0.41344 0.61216 0.01500
C 	C 	0.79089 0.43417 0.38117 0.01600
C 	C 	0.69620 0.97285 0.57223 0.01300
C 	C 	0.29865 0.97352 0.42964 0.01000
C 	C 	0.20320 0.43731 0.56219 -0.04900
C 	C 	0.80102 0.47238 0.42901 -0.05500
C 	C 	0.73926 0.96314 0.53505 -0.03200
C 	C 	0.25255 0.97029 0.46461 -0.03100
C 	C 	0.25069 0.42819 0.52905 -0.00800
C 	C 	0.75622 0.46692 0.46501 -0.00400
C 	C 	0.76167 0.88616 0.63008 -0.09100
C 	C 	0.23593 0.88765 0.36997 -0.09600
C 	C 	0.26708 0.37777 0.62786 -0.11200
C 	C 	0.73693 0.38644 0.37014 -0.11200
C 	C 	0.55450 0.15826 0.32160 0.42800
C 	C 	0.44510 0.15798 0.67820 0.43000
C 	C 	0.05633 0.65822 0.32259 0.42600
C 	C 	0.94634 0.65800 0.67871 0.42300
C 	C 	0.72898 0.01216 0.32597 0.29800
C 	C 	0.27025 0.01022 0.67441 0.30000
C 	C 	0.23123 0.50403 0.32328 0.41600
C 	C 	0.77051 0.51030 0.67441 0.41000
C 	C 	0.51974 0.07609 0.10110 0.01800
C 	C 	0.48115 0.07612 0.89859 0.01800
C 	C 	0.01961 0.57614 0.10113 0.00400
C 	C 	0.98104 0.57610 0.89862 0.00000
C 	C 	0.50861 0.07913 0.05084 -0.04600
C 	C 	0.49246 0.07915 0.94883 -0.04700
C 	C 	0.00847 0.57917 0.05088 0.00000
C 	C 	0.99232 0.57915 0.94886 0.00600
C 	C 	0.49651 0.98628 0.97446 0.00100
C 	C 	0.50509 0.98627 0.02505 -0.00000
C 	C 	0.99629 0.48629 0.97451 -0.04400
C 	C 	0.00486 0.48630 0.02510 -0.03500
Cr	Cr	0.75657 0.17094 0.25119 1.53600
Cr	Cr	0.24343 0.17094 0.74881 1.53600
Cr	Cr	0.25657 0.67094 0.25119 1.54000
Cr	Cr	0.74343 0.67094 0.74881 1.54000
Cr	Cr	0.62374 0.29911 0.24958 1.54000
Cr	Cr	0.37626 0.29911 0.75042 1.54100
Cr	Cr	0.12374 0.79911 0.24958 1.54200
Cr	Cr	0.87626 0.79911 0.75042 1.54200
Cr	Cr	0.62599 0.03624 0.25048 1.52300
Cr	Cr	0.37401 0.03624 0.74952 1.52300
Cr	Cr	0.12599 0.53624 0.25048 1.53900
Cr	Cr	0.87401 0.53624 0.74952 1.53900
H 	H 	0.47387 0.00208 0.88110 0.01800
H 	H 	0.52731 0.00206 0.11848 0.01800
H 	H 	0.97371 0.50206 0.88114 0.03700
H 	H 	0.02712 0.50210 0.11853 0.03700
H 	H 	0.80493 0.02551 0.86886 -0.01300
H 	H 	0.19496 0.02546 0.13124 -0.01300
H 	H 	0.30485 0.52556 0.86885 0.02300
H 	H 	0.69493 0.52543 0.13123 0.02300
H 	H 	0.65221 0.86730 0.03559 0.04400
H 	H 	0.34753 0.86587 0.96423 0.04500
H 	H 	0.15226 0.36709 0.03562 0.04500
H 	H 	0.84755 0.36596 0.96424 0.04500
H 	H 	0.65124 0.89219 0.12474 0.03500
H 	H 	0.34867 0.89130 0.87513 0.03400
H 	H 	0.15130 0.39200 0.12477 0.02100
H 	H 	0.84870 0.39139 0.87514 0.02000
H 	H 	0.49422 0.31640 0.36815 0.01700
H 	H 	0.50130 0.31706 0.62988 0.01700
H 	H 	0.97652 0.78300 0.37153 0.01800
H 	H 	0.98603 0.82785 0.62888 0.02400
H 	H 	0.45380 0.01562 0.52403 0.03300
H 	H 	0.54094 0.01698 0.47537 0.03300
H 	H 	0.00866 0.50193 0.53508 0.04200
H 	H 	0.09366 0.55224 0.48160 0.04900
H 	H 	0.43740 0.00624 0.61149 0.01100
H 	H 	0.56207 0.00839 0.38878 0.01200
H 	H 	0.97796 0.49650 0.62072 0.02400
H 	H 	0.10800 0.54530 0.39261 0.03000
H 	H 	0.46653 0.32061 0.45674 0.05000
H 	H 	0.52459 0.32136 0.54077 0.04800
H 	H 	0.95943 0.78544 0.46173 0.05300
H 	H 	0.02009 0.83140 0.54252 0.04900
H 	H 	0.65104 0.90462 0.38373 0.04300
H 	H 	0.34826 0.90954 0.61299 0.04200
H 	H 	0.22117 0.31681 0.36849 0.01900
H 	H 	0.85334 0.41886 0.61415 0.02700
H 	H 	0.84245 0.82744 0.60034 0.05500
H 	H 	0.15070 0.84135 0.39534 0.05900
H 	H 	0.35649 0.34054 0.60707 0.05400
H 	H 	0.65358 0.33464 0.39778 0.05200
H 	H 	0.49305 0.91325 0.95530 0.03200
H 	H 	0.50892 0.91324 0.04410 0.03200
H 	H 	0.99277 0.41325 0.95536 0.03400
H 	H 	0.00862 0.41327 0.04416 0.03300
H 	H 	0.64810 0.90371 0.47414 0.04200
H 	H 	0.34583 0.91113 0.52233 0.04100
H 	H 	0.22920 0.28680 0.45822 0.04900
H 	H 	0.85201 0.41772 0.52351 0.03700
H 	H 	0.65420 0.00995 0.56427 -0.00300
H 	H 	0.34127 0.00613 0.43949 -0.00400
H 	H 	0.15987 0.46134 0.54914 0.04100
H 	H 	0.84344 0.50681 0.43791 0.04300
H 	H 	0.67546 0.94679 0.64914 0.03700
H 	H 	0.32537 0.93735 0.35501 0.03700
H 	H 	0.17532 0.42061 0.63798 0.02100
H 	H 	0.82477 0.44149 0.35312 0.02000
H 	H 	0.80716 0.09303 0.38852 0.06500
H 	H 	0.18471 0.07970 0.61530 0.06500
H 	H 	0.24547 0.63985 0.39241 0.05100
H 	H 	0.68438 0.57427 0.61380 0.05400
H 	H 	0.82539 0.03016 0.11790 -0.00100
H 	H 	0.17463 0.03088 0.88214 -0.00100
H 	H 	0.32534 0.53035 0.11788 0.02600
H 	H 	0.67460 0.53077 0.88213 0.02600
H 	H 	0.69497 0.77437 0.97163 0.04600
H 	H 	0.30471 0.77330 0.02812 0.04600
H 	H 	0.19506 0.27425 0.97165 0.04300
H 	H 	0.80475 0.27333 0.02813 0.04300
H 	H 	0.70965 0.73981 0.88463 0.02600
H 	H 	0.29015 0.73900 0.11514 0.02600
H 	H 	0.20974 0.23969 0.88465 0.02400
H 	H 	0.79019 0.23905 0.11516 0.02300
H 	H 	0.82655 0.00282 0.02898 0.00100
H 	H 	0.17332 0.00316 0.97100 0.00100
H 	H 	0.32650 0.50301 0.02896 0.04400
H 	H 	0.67328 0.50303 0.97098 0.04400
H 	H 	0.78531 0.06516 0.95595 0.01500
H 	H 	0.21445 0.06482 0.04416 0.01500
H 	H 	0.28521 0.56522 0.95594 0.04500
H 	H 	0.71440 0.56478 0.04415 0.04500
O 	O 	0.76990 0.06454 0.19606 -0.48100
O 	O 	0.23010 0.06454 0.80394 -0.48100
O 	O 	0.26990 0.56454 0.19606 -0.49100
O 	O 	0.73010 0.56454 0.80394 -0.49100
O 	O 	0.57476 0.23932 0.30085 -0.53300
O 	O 	0.42524 0.23932 0.69915 -0.53500
O 	O 	0.07476 0.73932 0.30085 -0.52900
O 	O 	0.92524 0.73932 0.69915 -0.52900
O 	O 	0.56629 0.06958 0.30540 -0.50900
O 	O 	0.43371 0.06958 0.69460 -0.51000
O 	O 	0.06629 0.56958 0.30540 -0.49300
O 	O 	0.93371 0.56958 0.69460 -0.49500
O 	O 	0.68076 0.99333 0.30262 -0.46100
O 	O 	0.31924 0.99333 0.69738 -0.46100
O 	O 	0.18076 0.49333 0.30262 -0.53100
O 	O 	0.81924 0.49333 0.69738 -0.52700
O 	O 	0.66877 0.16876 0.25042 -0.75000
O 	O 	0.33123 0.16876 0.74958 -0.75000
O 	O 	0.16877 0.66876 0.25042 -0.74300
O 	O 	0.83123 0.66876 0.74958 -0.74300
O 	O 	0.75080 0.27408 0.19925 -0.53500
O 	O 	0.24920 0.27408 0.80075 -0.53400
O 	O 	0.25080 0.77408 0.19925 -0.53200
O 	O 	0.74920 0.77408 0.80075 -0.53200
O 	O 	0.66999 0.37167 0.19415 -0.48800
O 	O 	0.33001 0.37167 0.80585 -0.48800
O 	O 	0.16999 0.87167 0.19415 -0.48300
O 	O 	0.83001 0.87167 0.80585 -0.48300
O 	O 	0.57460 0.23848 0.19780 -0.52400
O 	O 	0.42540 0.23848 0.80220 -0.52400
O 	O 	0.07460 0.73848 0.19780 -0.52000
O 	O 	0.92540 0.73848 0.80220 -0.52100
O 	O 	0.56613 0.06868 0.19424 -0.49800
O 	O 	0.43387 0.06868 0.80576 -0.49900
O 	O 	0.06613 0.56868 0.19424 -0.48400
O 	O 	0.93387 0.56868 0.80576 -0.48500
O 	O 	0.68061 0.99249 0.19957 -0.47300
O 	O 	0.31939 0.99249 0.80043 -0.47300
O 	O 	0.18061 0.49249 0.19957 -0.53500
O 	O 	0.81939 0.49249 0.80043 -0.53400
O 	O 	0.77006 0.06544 0.30723 -0.46800
O 	O 	0.22994 0.06544 0.69277 -0.47000
O 	O 	0.27006 0.56544 0.30723 -0.48700
O 	O 	0.72994 0.56544 0.69277 -0.48600
O 	O 	0.75096 0.27492 0.30230 -0.53600
O 	O 	0.24904 0.27492 0.69770 -0.53400
O 	O 	0.25096 0.77492 0.30230 -0.53000
O 	O 	0.74904 0.77492 0.69770 -0.52800
O 	O 	0.67016 0.37258 0.30532 -0.48700
O 	O 	0.32984 0.37258 0.69468 -0.48800
O 	O 	0.17016 0.87258 0.30532 -0.48000
O 	O 	0.82984 0.87258 0.69468 -0.47800
O 	O 	0.83786 0.91405 0.50957 -0.20200
C 	C 	0.89655 0.92634 0.52797 0.09300
H 	H 	0.92501 0.94027 0.49527 0.02600
H 	H 	0.91191 0.85351 0.54452 0.01400
C 	C 	0.90529 0.01684 0.56466 -0.15600
H 	H 	0.87904 0.08445 0.55306 0.07200
H 	H 	0.89073 0.99541 0.60243 0.08800
C 	C 	0.96993 0.04874 0.56848 -0.16100
H 	H 	0.99730 0.98603 0.58432 0.07800
H 	H 	0.97344 0.11642 0.59326 0.04400
H 	H 	0.98705 0.06942 0.53142 0.04500
O 	O 	0.15101 0.92780 0.48580 -0.19400
C 	C 	0.09362 0.94219 0.46488 0.07600
H 	H 	0.06257 0.95146 0.49617 0.03000
H 	H 	0.07912 0.87234 0.44499 0.02300
C 	C 	0.08661 0.03906 0.43233 -0.09800
H 	H 	0.09363 0.10895 0.45502 0.05500
H 	H 	0.11903 0.04041 0.40161 0.04200
C 	C 	0.02466 0.04352 0.40953 -0.17900
H 	H 	0.01755 0.97687 0.38446 0.08500
H 	H 	0.01953 0.11526 0.38773 0.05000
H 	H 	0.99075 0.04230 0.43910 0.04600
O 	O 	0.35563 0.41826 0.51420 -0.20800
C 	C 	0.40673 0.45993 0.53790 0.04400
H 	H 	0.43935 0.47648 0.50835 0.02000
H 	H 	0.42801 0.40254 0.56212 0.02200
C 	C 	0.39528 0.55957 0.56764 -0.07900
H 	H 	0.36484 0.61114 0.54727 0.05900
H 	H 	0.37438 0.54156 0.60371 0.05200
C 	C 	0.45285 0.61642 0.57836 -0.13500
H 	H 	0.48426 0.56602 0.59890 0.04800
H 	H 	0.44338 0.68545 0.60122 0.04800
H 	H 	0.47342 0.64136 0.54316 0.04700
O 	O 	0.65568 0.42198 0.48784 -0.19800
C 	C 	0.59776 0.43795 0.46815 0.04400
H 	H 	0.56852 0.45349 0.50022 0.02500
H 	H 	0.58156 0.36648 0.45079 0.02400
C 	C 	0.59107 0.52962 0.43201 -0.07700
H 	H 	0.61418 0.59834 0.44648 0.06200
H 	H 	0.61034 0.51094 0.39538 0.05000
C 	C 	0.52598 0.55664 0.42359 -0.13500
H 	H 	0.50123 0.48896 0.40950 0.05000
H 	H 	0.52252 0.61923 0.39581 0.04700
H 	H 	0.50569 0.58323 0.45870 0.04800
O 	O 	0.80796 0.11486 0.48828 -0.21000
C 	C 	0.82844 0.20625 0.46597 0.03800
H 	H 	0.82675 0.26622 0.49476 0.02800
H 	H 	0.79983 0.23521 0.43528 0.02900
C 	C 	0.89314 0.19305 0.45008 -0.06700
H 	H 	0.92093 0.17731 0.48325 0.03900
H 	H 	0.89724 0.12670 0.42449 0.03800
C 	C 	0.91696 0.28875 0.42461 -0.14100
H 	H 	0.89212 0.30320 0.38971 0.05100
H 	H 	0.96444 0.27723 0.41543 0.04600
H 	H 	0.91333 0.35642 0.44948 0.05200
O 	O 	0.17936 0.11177 0.51686 -0.20800
C 	C 	0.15936 0.20086 0.54196 0.03700
H 	H 	0.15610 0.26380 0.51454 0.02500
H 	H 	0.19083 0.22794 0.57096 0.02900
C 	C 	0.09689 0.18491 0.56246 -0.06800
H 	H 	0.06475 0.18616 0.53119 0.03700
H 	H 	0.09358 0.10923 0.58112 0.03800
C 	C 	0.08008 0.26951 0.59904 -0.13900
H 	H 	0.11027 0.26767 0.63166 0.04700
H 	H 	0.03409 0.25789 0.61220 0.04300
H 	H 	0.08234 0.34589 0.58092 0.05000
O 	O 	0.26640 0.62318 0.49232 -0.20300
C 	C 	0.29948 0.70575 0.47251 0.03900
H 	H 	0.31073 0.75478 0.50459 0.03100
H 	H 	0.27170 0.75377 0.44799 0.03100
C 	C 	0.35766 0.67343 0.44657 -0.07300
H 	H 	0.37513 0.60098 0.46237 0.05500
H 	H 	0.34923 0.65975 0.40655 0.04700
C 	C 	0.40519 0.75638 0.45108 -0.14000
H 	H 	0.38913 0.82946 0.43485 0.05900
H 	H 	0.44541 0.73253 0.43064 0.05000
H 	H 	0.41734 0.76902 0.49054 0.05200
O 	O 	0.68302 0.60962 0.51645 -0.20200
C 	C 	0.66657 0.70306 0.53946 0.03600
H 	H 	0.67387 0.76418 0.51205 0.03100
H 	H 	0.69392 0.72529 0.57223 0.02900
C 	C 	0.60061 0.69982 0.55241 -0.06400
H 	H 	0.57440 0.68550 0.51818 0.04100
H 	H 	0.59226 0.63586 0.57864 0.04200
C 	C 	0.57952 0.80030 0.57554 -0.14500
H 	H 	0.60373 0.81509 0.61071 0.05700
H 	H 	0.53151 0.79552 0.58384 0.05300
H 	H 	0.58625 0.86499 0.54945 0.06100
C 	C 	0.50880 0.34633 0.86070 0.01800
C 	C 	0.46893 0.41956 0.84158 -0.05800
C 	C 	0.48857 0.49515 0.80882 -0.03500
C 	C 	0.54809 0.49803 0.79476 -0.03700
C 	C 	0.58797 0.42517 0.81335 -0.02700
C 	C 	0.56848 0.34956 0.84617 -0.04800
H 	H 	0.42295 0.41844 0.85258 0.05200
H 	H 	0.45769 0.55167 0.79452 0.02200
H 	H 	0.56331 0.55662 0.76944 0.02300
H 	H 	0.63397 0.42701 0.80220 0.03700
H 	H 	0.59979 0.29330 0.86017 0.04100
C 	C 	0.49094 0.34619 0.13935 0.01800
C 	C 	0.53055 0.41947 0.15866 -0.05800
C 	C 	0.51060 0.49490 0.19154 -0.03500
C 	C 	0.45105 0.49754 0.20556 -0.03800
C 	C 	0.41145 0.42460 0.18680 -0.02700
C 	C 	0.43123 0.34919 0.15383 -0.04800
H 	H 	0.57656 0.41848 0.14773 0.05200
H 	H 	0.54127 0.55146 0.20599 0.02200
H 	H 	0.43560 0.55598 0.23099 0.02300
H 	H 	0.36544 0.42623 0.19793 0.03600
H 	H 	0.40014 0.29286 0.13970 0.04100
C 	C 	0.00893 0.84621 0.86068 0.03100
C 	C 	0.96913 0.91949 0.84149 -0.07100
C 	C 	0.98887 0.99495 0.80870 0.00500
C 	C 	0.04842 0.99765 0.79468 0.00400
C 	C 	0.08822 0.92474 0.81334 -0.03300
C 	C 	0.06863 0.84927 0.84620 -0.04500
H 	H 	0.92313 0.91849 0.85244 0.06500
H 	H 	0.95805 0.05150 0.79434 -0.01500
H 	H 	0.06371 0.05613 0.76933 -0.01100
H 	H 	0.13423 0.92645 0.80223 0.05200
H 	H 	0.09989 0.79297 0.86025 0.04500
C 	C 	0.99112 0.84639 0.13935 0.02100
C 	C 	0.03084 0.91958 0.15857 -0.06500
C 	C 	0.01105 0.99511 0.19146 0.00800
C 	C 	0.95153 0.99796 0.20557 0.00100
C 	C 	0.91181 0.92513 0.18688 -0.03400
C 	C 	0.93145 0.84960 0.15391 -0.04300
H 	H 	0.07683 0.91844 0.14756 0.06300
H 	H 	0.04181 0.05159 0.20585 -0.01400
H 	H 	0.93620 0.05648 0.23101 -0.01100
H 	H 	0.86583 0.92692 0.19808 0.05200
H 	H 	0.90026 0.79335 0.13985 0.04400
C 	C 	0.48815 0.46392 0.94961 0.02800
C 	C 	0.43120 0.50741 0.94690 -0.05500
C 	C 	0.42358 0.60771 0.92936 -0.01800
C 	C 	0.47274 0.66531 0.91481 -0.04200
C 	C 	0.52961 0.62277 0.91778 -0.01600
C 	C 	0.53730 0.52262 0.93532 -0.05100
H 	H 	0.39314 0.46375 0.95888 0.04500
H 	H 	0.37970 0.64120 0.92734 0.02700
H 	H 	0.46676 0.74294 0.90134 0.03500
H 	H 	0.56772 0.66738 0.90663 0.03000
H 	H 	0.58126 0.49021 0.93771 0.04200
C 	C 	0.51161 0.46387 0.05063 0.02800
C 	C 	0.56848 0.50726 0.05342 -0.05500
C 	C 	0.57590 0.60754 0.07111 -0.01800
C 	C 	0.52662 0.66521 0.08571 -0.04200
C 	C 	0.46983 0.62276 0.08266 -0.01600
C 	C 	0.46234 0.52263 0.06498 -0.05100
H 	H 	0.60663 0.46358 0.04138 0.04500
H 	H 	0.61972 0.64097 0.07318 0.02700
H 	H 	0.53245 0.74283 0.09929 0.03500
H 	H 	0.43163 0.66742 0.09386 0.03000
H 	H 	0.41845 0.49029 0.06252 0.04200
C 	C 	0.98821 0.96391 0.94956 0.17400
C 	C 	0.93126 0.00739 0.94683 -0.20800
C 	C 	0.92365 0.10767 0.92925 0.05500
C 	C 	0.97282 0.16525 0.91469 -0.10700
C 	C 	0.02968 0.12270 0.91769 0.05800
C 	C 	0.03737 0.02257 0.93526 -0.20400
H 	H 	0.89319 0.96376 0.95881 0.10600
H 	H 	0.87977 0.14116 0.92721 0.00300
H 	H 	0.96685 0.24286 0.90119 0.04600
H 	H 	0.06780 0.16729 0.90653 0.00400
H 	H 	0.08132 0.99015 0.93767 0.10700
C 	C 	0.01166 0.96394 0.05059 0.17600
C 	C 	0.06852 0.00736 0.05332 -0.20800
C 	C 	0.07594 0.10765 0.07099 0.05400
C 	C 	0.02667 0.16531 0.08562 -0.10200
C 	C 	0.96989 0.12284 0.08260 0.05400
C 	C 	0.96239 0.02269 0.06495 -0.20600
H 	H 	0.10667 0.96367 0.04128 0.10600
H 	H 	0.11976 0.14109 0.07304 0.00300
H 	H 	0.03250 0.24294 0.09918 0.04500
H 	H 	0.93169 0.16749 0.09381 0.00500
H 	H 	0.91850 0.99034 0.06252 0.10700
