data_crystal

_cell_length_a 10.89359
_cell_length_b 10.92290
_cell_length_c 18.85413
_cell_angle_alpha 90.38148
_cell_angle_beta  89.85435
_cell_angle_gamma 60.21678

_symmetry_space_group_name_	'P 1'
_symmetry_space_group_name_H-M	'P 1'

loop_
_symmetry_equiv_pos_as_xyz
  x,y,z

loop_
_atom_site_label
_atom_site_type_symbol
_atom_site_fract_x
_atom_site_fract_y
_atom_site_fract_z
_atom_site_charge
C 	C 	0.23937 0.64530 0.61044 0.43300
C 	C 	0.55280 0.21318 0.79423 0.01800
C 	C 	0.54033 0.22085 0.72189 0.02600
C 	C 	0.65546 0.62399 0.59993 0.45900
C 	C 	0.65604 0.19289 0.67868 -0.06800
C 	C 	0.21526 0.54504 0.72435 0.03100
C 	C 	0.20420 0.55291 0.79808 0.02500
C 	C 	0.17459 0.67780 0.83316 -0.09100
C 	C 	0.16752 0.79034 0.79425 0.00800
C 	C 	0.17716 0.78300 0.72134 0.01400
C 	C 	0.20062 0.66052 0.68545 -0.07100
C 	C 	0.65530 0.56369 0.79830 -0.04800
C 	C 	0.70586 0.52387 0.26983 -0.09200
C 	C 	0.70597 0.53882 0.19693 0.21900
C 	C 	0.64922 0.67408 0.16797 -0.20500
C 	C 	0.62634 0.23196 0.60419 0.42900
C 	C 	0.57932 0.79359 0.21256 0.03500
C 	C 	0.57640 0.77789 0.28580 -0.04400
C 	C 	0.64548 0.64271 0.31482 -0.07900
C 	C 	0.52821 0.18378 0.28539 0.02700
C 	C 	0.53400 0.17455 0.21286 0.01300
C 	C 	0.65743 0.14853 0.17792 -0.08700
C 	C 	0.70413 0.67241 0.81124 -0.07300
C 	C 	0.77479 0.13279 0.21644 0.01900
C 	C 	0.76730 0.14736 0.28917 0.01800
C 	C 	0.64297 0.17545 0.32369 -0.10700
C 	C 	0.11051 0.79996 0.30175 0.01500
C 	C 	0.21879 0.64997 0.40250 0.43500
C 	C 	0.10148 0.80685 0.22961 0.00500
C 	C 	0.11774 0.69086 0.18942 -0.09800
C 	C 	0.14098 0.56758 0.22308 0.01400
C 	C 	0.15895 0.55755 0.29614 0.02400
C 	C 	0.15005 0.67237 0.33487 -0.10700
C 	C 	0.67535 0.65084 0.67465 -0.16200
C 	C 	0.70160 0.10355 0.89655 0.40400
C 	C 	0.72429 0.68774 0.88783 0.40300
C 	C 	0.11783 0.70725 0.90532 0.40500
C 	C 	0.67603 0.10474 0.10479 0.42100
C 	C 	0.69394 0.69039 0.09723 0.46200
C 	C 	0.63991 0.61954 0.39055 0.39600
C 	C 	0.08636 0.71336 0.11474 0.41300
C 	C 	0.61717 0.22794 0.39533 0.43800
C 	C 	0.58918 0.81666 0.77983 -0.10300
C 	C 	0.55240 0.79464 0.70388 0.17500
C 	C 	0.82458 0.63820 0.68927 0.27000
C 	C 	0.84920 0.62201 0.77099 0.05900
C 	C 	0.66393 0.53373 0.71798 -0.01900
C 	C 	0.78741 0.15356 0.70986 0.02200
C 	C 	0.80274 0.13565 0.78345 0.01900
C 	C 	0.68527 0.16244 0.82569 -0.08800
Cl	Cl	0.97701 0.44129 0.79448 -0.35700
Cl	Cl	0.97036 0.49745 0.64061 -0.36500
Cl	Cl	0.78290 0.38571 0.14338 -0.38500
Cl	Cl	0.50435 0.94700 0.65020 -0.39800
Cl	Cl	0.83161 0.79110 0.66046 -0.40700
Cr	Cr	0.39293 0.39790 0.50223 1.54900
Cr	Cr	0.39824 0.70860 0.50126 1.53600
Cr	Cr	0.70880 0.39347 0.49646 1.53700
Cr	Cr	0.93762 0.93854 0.00764 1.42500
Cr	Cr	0.62515 0.93745 0.99452 1.49800
Cr	Cr	0.93799 0.62508 0.00119 1.48400
H 	H 	0.75764 0.42858 0.70683 0.07100
H 	H 	0.53505 0.89899 0.19141 -0.01600
H 	H 	0.52464 0.87054 0.31970 0.01100
H 	H 	0.43004 0.20544 0.31079 0.06500
H 	H 	0.44362 0.18314 0.18457 0.06800
H 	H 	0.87270 0.10907 0.19038 0.05500
H 	H 	0.85605 0.14153 0.31789 0.03400
H 	H 	0.10050 0.89069 0.33062 0.03100
H 	H 	0.45409 0.78726 0.70662 0.01300
H 	H 	0.08176 0.90455 0.20566 0.03300
H 	H 	0.14902 0.47896 0.19305 0.06600
H 	H 	0.87745 0.13501 0.67753 0.05700
H 	H 	0.18859 0.45792 0.32135 0.06000
H 	H 	0.89528 0.68779 0.78890 0.02300
H 	H 	0.72097 0.46398 0.82748 0.06800
H 	H 	0.54445 0.60686 0.81741 0.04000
H 	H 	0.56881 0.52715 0.70218 0.03300
H 	H 	0.62933 0.89255 0.78037 0.05600
H 	H 	0.43814 0.25023 0.69994 0.08900
H 	H 	0.75217 0.41857 0.29131 0.07500
H 	H 	0.90628 0.09563 0.80668 0.05200
H 	H 	0.45980 0.23562 0.82515 0.06800
H 	H 	0.23471 0.44929 0.69775 0.09900
H 	H 	0.21302 0.46417 0.82742 0.08700
H 	H 	0.14653 0.88820 0.81956 0.03600
H 	H 	0.49046 0.86371 0.81235 0.04800
H 	H 	0.16870 0.87313 0.69332 0.04800
O 	O 	0.50743 0.25557 0.58142 -0.42700
O 	O 	0.83720 0.59329 0.91525 -0.46200
O 	O 	0.06533 0.63537 0.93159 -0.42700
O 	O 	0.28019 0.52739 0.57891 -0.48600
O 	O 	0.06830 0.82879 0.09186 -0.46400
O 	O 	0.79873 0.05748 0.07937 -0.47300
O 	O 	0.58468 0.08048 0.07679 -0.41800
O 	O 	0.62679 0.80964 0.06705 -0.58000
O 	O 	0.81601 0.59646 0.07650 -0.50300
O 	O 	0.04568 0.63831 0.08107 -0.45300
O 	O 	0.83359 0.83369 0.00112 -0.85600
O 	O 	0.52446 0.69592 0.42406 -0.52500
O 	O 	0.26031 0.73974 0.58458 -0.47400
O 	O 	0.53225 0.69515 0.57383 -0.51900
O 	O 	0.74493 0.50343 0.57638 -0.46500
O 	O 	0.69925 0.27639 0.57195 -0.51500
O 	O 	0.49902 0.25640 0.41985 -0.45900
O 	O 	0.27240 0.52816 0.42914 -0.50700
O 	O 	0.25191 0.74057 0.42302 -0.48500
O 	O 	0.73653 0.50426 0.41481 -0.48700
O 	O 	0.69146 0.27716 0.42218 -0.52300
O 	O 	0.49999 0.49999 0.49998 -0.75200
O 	O 	0.08949 0.82561 0.93061 -0.44800
O 	O 	0.81837 0.05454 0.92988 -0.45100
O 	O 	0.60587 0.07731 0.91553 -0.39500
O 	O 	0.64644 0.80670 0.91757 -0.54500
