data_crystal

_cell_length_a 6.95960
_cell_length_b 13.58552
_cell_length_c 20.24678
_cell_angle_alpha 103.03527
_cell_angle_beta  90.64669
_cell_angle_gamma 90.05554

_symmetry_space_group_name_	'P 1'
_symmetry_space_group_name_H-M	'P 1'

loop_
_symmetry_equiv_pos_as_xyz
  x,y,z

loop_
_atom_site_label
_atom_site_type_symbol
_atom_site_fract_x
_atom_site_fract_y
_atom_site_fract_z
_atom_site_charge
O 	O 	0.50677 0.59970 0.44955 -0.47500
O 	O 	0.17998 0.59574 0.58796 -0.49400
O 	O 	0.00458 0.40030 0.55045 -0.47400
C 	C 	0.34872 0.61781 0.61504 0.38300
O 	O 	0.17738 0.61170 0.45238 -0.48300
O 	O 	0.00197 0.41637 0.41390 -0.47400
C 	C 	0.34528 0.63919 0.43624 0.38300
O 	O 	0.50939 0.58363 0.58610 -0.48600
O 	O 	0.33753 0.43589 0.48753 -0.63700
V 	V 	0.06466 0.51189 0.50231 1.80800
O 	O 	0.67195 0.40426 0.41204 -0.48200
C 	C 	0.83982 0.38211 0.38497 0.36800
O 	O 	0.67454 0.38830 0.54762 -0.48700
C 	C 	0.84399 0.36160 0.56415 0.37800
V 	V 	0.56403 0.48811 0.49769 1.80700
O 	O 	0.84103 0.56411 0.51247 -0.64600
C 	C 	0.89472 0.11064 0.61054 -0.07000
H 	H 	0.89045 0.16067 0.51731 0.02800
H 	H 	0.91789 0.98563 0.69366 0.03700
H 	H 	0.91449 0.03230 0.58480 0.05000
C 	C 	0.85487 0.28458 0.60397 -0.10400
C 	C 	0.83330 0.31624 0.93070 0.03000
C 	C 	0.81835 0.39222 0.89515 -0.05000
C 	C 	0.82666 0.36922 0.82460 -0.02100
C 	C 	0.85047 0.26830 0.78745 -0.01000
C 	C 	0.86640 0.19076 0.82436 0.06500
C 	C 	0.85891 0.24172 0.71509 -0.01200
C 	C 	0.88415 0.13869 0.68154 0.03600
C 	C 	0.89903 0.06429 0.71891 -0.03800
C 	C 	0.88997 0.08971 0.78911 -0.05200
C 	C 	0.84366 0.31372 0.67459 0.01300
C 	C 	0.88083 0.18332 0.57202 0.03300
C 	C 	0.85757 0.21590 0.89607 -0.11700
H 	H 	0.82421 0.39313 0.69603 0.03300
H 	H 	0.82559 0.33568 0.98554 0.02900
H 	H 	0.81386 0.43238 0.80092 0.03700
H 	H 	0.79968 0.46979 0.92249 0.04400
H 	H 	0.90185 0.02911 0.81561 0.05100
C 	C 	0.70874 0.24776 0.20388 0.08000
C 	C 	0.86677 0.18507 0.18368 -0.13000
C 	C 	0.01978 0.19046 0.23042 0.01600
H 	H 	0.14298 0.14205 0.21751 0.03100
C 	C 	0.01037 0.25410 0.29575 -0.01000
H 	H 	0.12701 0.25298 0.33132 0.05300
C 	C 	0.84816 0.31482 0.31622 -0.07900
C 	C 	0.70016 0.31238 0.26823 -0.00600
C 	C 	0.49152 0.29004 0.27424 0.09000
C 	C 	0.50251 0.21845 0.20371 -0.15100
H 	H 	0.46781 0.24851 0.31493 0.02700
H 	H 	0.42313 0.23753 0.16060 0.07900
H 	H 	0.48630 0.13774 0.20577 0.07300
C 	C 	0.50125 0.67958 0.73037 0.04600
C 	C 	0.35252 0.68400 0.68415 -0.10700
C 	C 	0.19593 0.74789 0.70770 -0.00100
H 	H 	0.07661 0.75318 0.67406 0.04200
C 	C 	0.19682 0.81042 0.77348 0.00200
H 	H 	0.07941 0.86234 0.78833 0.03800
C 	C 	0.35461 0.81125 0.81761 -0.10800
C 	C 	0.50281 0.74213 0.79526 0.04700
C 	C 	0.71375 0.76015 0.79322 -0.08600
C 	C 	0.71183 0.69184 0.72261 -0.08600
H 	H 	0.79451 0.72790 0.83102 0.05900
H 	H 	0.74752 0.84025 0.79361 0.05700
H 	H 	0.79101 0.61996 0.71959 0.05500
H 	H 	0.74461 0.73219 0.68201 0.06000
C 	C 	0.26011 0.88676 0.38829 -0.07000
H 	H 	0.24606 0.83484 0.48058 0.03000
H 	H 	0.21104 0.00750 0.30325 0.03900
H 	H 	0.20839 0.96134 0.41234 0.05100
C 	C 	0.34839 0.71838 0.39771 -0.10200
C 	C 	0.43308 0.68883 0.07318 0.03000
C 	C 	0.47842 0.61825 0.11082 -0.05000
C 	C 	0.46133 0.64263 0.18101 -0.02300
C 	C 	0.38948 0.73753 0.21543 -0.01100
C 	C 	0.34527 0.81025 0.17655 0.06500
C 	C 	0.36252 0.76296 0.28714 -0.01200
C 	C 	0.29578 0.86113 0.31841 0.03500
C 	C 	0.26059 0.93230 0.27960 -0.03900
C 	C 	0.28421 0.90730 0.20981 -0.05400
C 	C 	0.39220 0.69315 0.32872 0.01000
C 	C 	0.28278 0.81523 0.42736 0.03200
C 	C 	0.36943 0.78517 0.10525 -0.11800
H 	H 	0.43913 0.61690 0.30870 0.04000
H 	H 	0.45604 0.66980 0.01893 0.03200
H 	H 	0.51049 0.58654 0.20700 0.03700
H 	H 	0.53326 0.54501 0.08561 0.04300
H 	H 	0.25255 0.96472 0.18202 0.05300
O 	O 	0.20345 0.91632 0.91391 -0.48600
O 	O 	0.53552 0.88830 0.04762 -0.48600
O 	O 	0.71086 0.08365 0.08610 -0.48900
C 	C 	0.36834 0.86263 0.06517 0.38600
O 	O 	0.53286 0.90425 0.91204 -0.49600
O 	O 	0.70819 0.09971 0.94955 -0.47500
C 	C 	0.36392 0.88256 0.88482 0.38300
O 	O 	0.20612 0.90026 0.05046 -0.47700
O 	O 	0.37528 0.06408 0.01247 -0.64500
V 	V 	0.64818 0.98811 0.99769 1.80600
O 	O 	0.03822 0.11174 0.95237 -0.48100
C 	C 	0.86873 0.13837 0.93582 0.38100
O 	O 	0.04088 0.09579 0.08794 -0.49700
C 	C 	0.87313 0.11597 0.11563 0.38400
V 	V 	0.14880 0.01195 0.00230 1.80500
O 	O 	0.87182 0.93592 0.98753 -0.64900
O 	O 	0.37815 0.37971 0.28523 -0.17800
C 	C 	0.31692 0.40860 0.22575 -0.03000
H 	H 	0.20438 0.35646 0.19866 0.04700
H 	H 	0.43947 0.41450 0.19214 0.03900
H 	H 	0.24863 0.48392 0.24037 0.04800
