data_crystal

_cell_length_a 7.78538
_cell_length_b 8.57393
_cell_length_c 10.66971
_cell_angle_alpha 91.81065
_cell_angle_beta  84.18501
_cell_angle_gamma 93.82384

_symmetry_space_group_name_	'P 1'
_symmetry_space_group_name_H-M	'P 1'

loop_
_symmetry_equiv_pos_as_xyz
  x,y,z

loop_
_atom_site_label
_atom_site_type_symbol
_atom_site_fract_x
_atom_site_fract_y
_atom_site_fract_z
_atom_site_charge
C 	C 	0.54586 0.79480 0.49705 0.38600
C 	C 	0.45413 0.20519 0.50291 0.38300
C 	C 	0.50180 0.50917 0.26000 0.38000
C 	C 	0.15848 0.50337 0.91557 0.14400
C 	C 	0.03931 0.59980 0.98009 -0.09700
C 	C 	0.08012 0.68207 0.08853 0.02900
C 	C 	0.23645 0.66141 0.13652 -0.08900
C 	C 	0.35686 0.56230 0.07274 0.08700
C 	C 	0.05627 0.25263 0.86895 0.07700
C 	C 	0.20993 0.14823 0.85171 -0.07700
C 	C 	0.15005 0.97571 0.86186 -0.13800
C 	C 	0.33018 0.50671 0.95168 -0.03600
C 	C 	0.47869 0.46177 0.87334 -0.06800
C 	C 	0.62450 0.41957 0.92566 -0.02600
C 	C 	0.63192 0.43707 0.05306 0.01900
C 	C 	0.50132 0.51213 0.12634 -0.13700
C 	C 	0.56995 0.95832 0.49513 -0.11800
C 	C 	0.42996 0.04168 0.50529 -0.11700
C 	C 	0.49447 0.48467 0.73964 0.34700
H 	H 	0.73340 0.37569 0.86760 0.04900
H 	H 	0.95312 0.19971 0.81331 0.01400
H 	H 	0.99989 0.25470 0.96944 0.00500
H 	H 	0.28282 0.16715 0.75801 0.06400
H 	H 	0.29799 0.17837 0.92564 0.05500
H 	H 	0.07028 0.95573 0.95281 0.06200
H 	H 	0.26419 0.90383 0.85714 0.06500
H 	H 	0.07234 0.93835 0.78313 0.06500
H 	H 	0.98586 0.61834 0.59559 0.06700
H 	H 	0.91512 0.61105 0.94584 0.05700
H 	H 	0.98825 0.75773 0.13770 0.01500
H 	H 	0.26316 0.72530 0.22219 0.06900
H 	H 	0.74189 0.39514 0.09348 0.03500
H 	H 	0.70210 0.00955 0.48509 0.08600
H 	H 	0.29779 0.99048 0.51558 0.08700
H 	H 	0.01419 0.38162 0.40449 0.08600
N 	N 	0.95033 0.45795 0.46625 -0.24300
N 	N 	0.04967 0.54205 0.53375 -0.21400
O 	O 	0.38925 0.73857 0.50828 -0.46300
O 	O 	0.67839 0.71163 0.48665 -0.46300
O 	O 	0.35540 0.51347 0.69405 -0.43000
O 	O 	0.64454 0.48653 0.67242 -0.43900
O 	O 	0.32161 0.28837 0.51335 -0.45800
O 	O 	0.61075 0.26143 0.49172 -0.46400
O 	O 	0.35546 0.51347 0.32758 -0.45200
O 	O 	0.64460 0.48653 0.30595 -0.45400
O 	O 	0.10252 0.40357 0.82129 -0.21000
Zn	Zn	0.30693 0.51799 0.51444 1.23100
Zn	Zn	0.69307 0.48201 0.48556 1.22900
