data_crystal

_cell_length_a 20.14832
_cell_length_b 7.25501
_cell_length_c 13.57608
_cell_angle_alpha 89.99994
_cell_angle_beta  102.88973
_cell_angle_gamma 89.99987

_symmetry_space_group_name_	'P 1'
_symmetry_space_group_name_H-M	'P 1'

loop_
_symmetry_equiv_pos_as_xyz
  x,y,z

loop_
_atom_site_label
_atom_site_type_symbol
_atom_site_fract_x
_atom_site_fract_y
_atom_site_fract_z
_atom_site_charge
O 	O 	0.44956 0.50681 0.59970 -0.44700
O 	O 	0.55044 0.00681 0.40030 -0.43100
O 	O 	0.58796 0.18006 0.59576 -0.45700
O 	O 	0.41204 0.68006 0.40424 -0.45800
C 	C 	0.61477 0.34440 0.61769 0.38600
C 	C 	0.38523 0.84440 0.38231 0.37300
O 	O 	0.45238 0.17743 0.61170 -0.43200
O 	O 	0.54762 0.67743 0.38830 -0.43300
O 	O 	0.41390 0.00189 0.41635 -0.40900
O 	O 	0.58610 0.50189 0.58365 -0.42200
C 	C 	0.43659 0.34609 0.63794 0.39400
C 	C 	0.56341 0.84609 0.36206 0.37900
O 	O 	0.48753 0.33749 0.43589 -0.56800
O 	O 	0.51247 0.83749 0.56411 -0.57700
V 	V 	0.50231 0.06466 0.51189 1.80000
V 	V 	0.49769 0.56466 0.48811 1.79700
C 	C 	0.60598 0.95923 0.11421 0.31700
C 	C 	0.39402 0.45926 0.88579 0.33100
H 	H 	0.51576 0.96613 0.17301 0.11000
H 	H 	0.48424 0.46616 0.82699 0.11500
C 	C 	0.60123 0.85972 0.28214 -0.11300
C 	C 	0.39877 0.35972 0.71787 -0.11300
C 	C 	0.92732 0.84475 0.31367 0.47600
C 	C 	0.07268 0.34477 0.68632 0.48000
C 	C 	0.89114 0.85767 0.38907 -0.31600
C 	C 	0.10887 0.35769 0.61093 -0.31500
C 	C 	0.82068 0.87741 0.36469 0.44800
C 	C 	0.17933 0.37741 0.63531 0.45000
C 	C 	0.78380 0.87269 0.26234 -0.10300
C 	C 	0.21619 0.37268 0.73766 -0.10300
C 	C 	0.82136 0.88039 0.18523 0.08500
C 	C 	0.17864 0.38037 0.81477 0.08800
C 	C 	0.71121 0.87428 0.23485 0.01900
C 	C 	0.28879 0.37428 0.76516 0.02100
C 	C 	0.67737 0.92683 0.13482 -0.08600
C 	C 	0.32263 0.42684 0.86518 -0.08700
C 	C 	0.71560 0.94313 0.05909 0.07200
C 	C 	0.28439 0.44313 0.94091 0.07100
C 	C 	0.78623 0.91248 0.08424 0.22800
C 	C 	0.21377 0.41244 0.91576 0.22900
C 	C 	0.67079 0.82124 0.30333 0.33000
C 	C 	0.32921 0.32123 0.69667 0.33200
C 	C 	0.56955 0.93292 0.18887 -0.06500
C 	C 	0.43045 0.43294 0.81113 -0.06600
C 	C 	0.89363 0.86151 0.21221 -0.20800
C 	C 	0.10637 0.36151 0.78779 -0.21100
H 	H 	0.91825 0.85901 0.46750 0.21800
H 	H 	0.08175 0.35903 0.53250 0.22200
C 	C 	0.22609 0.01754 0.19870 0.32900
C 	C 	0.77391 0.51754 0.80130 0.31800
C 	C 	0.29109 0.01367 0.26236 0.24400
C 	C 	0.70891 0.51367 0.73763 0.23300
C 	C 	0.31646 0.85097 0.31360 -0.07200
C 	C 	0.68354 0.35097 0.68640 -0.05900
C 	C 	0.27510 0.69259 0.29902 -0.12100
C 	C 	0.72490 0.19259 0.70098 -0.12100
H 	H 	0.29282 0.56528 0.33774 0.16100
H 	H 	0.70718 0.06527 0.66226 0.16500
C 	C 	0.20987 0.69614 0.23594 0.41900
C 	C 	0.79013 0.19614 0.76406 0.42100
C 	C 	0.18418 0.85904 0.18461 -0.24100
C 	C 	0.81582 0.35904 0.81539 -0.22900
O 	O 	0.91392 0.20337 0.91626 -0.40700
O 	O 	0.08608 0.70337 0.08374 -0.40900
O 	O 	0.04762 0.53554 0.88829 -0.43700
O 	O 	0.95238 0.03554 0.11171 -0.41900
C 	C 	0.06429 0.36836 0.86292 0.46500
C 	C 	0.93571 0.86837 0.13708 0.44800
O 	O 	0.91204 0.53278 0.90422 -0.41400
O 	O 	0.08796 0.03278 0.09578 -0.40200
O 	O 	0.94955 0.70816 0.09972 -0.42600
O 	O 	0.05045 0.20816 0.90028 -0.42700
C 	C 	0.88531 0.36488 0.88320 0.43500
C 	C 	0.11470 0.86488 0.11680 0.42300
O 	O 	0.01248 0.37530 0.06406 -0.54600
O 	O 	0.98752 0.87530 0.93594 -0.55500
V 	V 	0.99769 0.64818 0.98811 1.80000
V 	V 	0.00231 0.14818 0.01189 1.80200
F 	F 	0.32948 0.16924 0.27189 -0.37800
F 	F 	0.67052 0.66925 0.72810 -0.38100
F 	F 	0.17173 0.54030 0.22720 -0.37700
F 	F 	0.82826 0.04029 0.77281 -0.37200
C 	C 	0.68225 0.98685 0.95005 -0.20400
H 	H 	0.71825 0.98457 0.89914 0.16500
H 	H 	0.64241 0.88286 0.92019 0.15200
H 	H 	0.65990 0.12734 0.94468 0.14500
C 	C 	0.31774 0.48688 0.04994 -0.18500
H 	H 	0.28174 0.48460 0.10085 0.16500
H 	H 	0.35759 0.38289 0.07981 0.15200
H 	H 	0.34009 0.62736 0.05531 0.13100
F 	F 	0.57040 0.02262 0.02382 -0.41700
F 	F 	0.42960 0.52267 0.97618 -0.43100
F 	F 	0.69700 0.72100 0.38756 -0.38200
F 	F 	0.30300 0.22098 0.61245 -0.38000
F 	F 	0.99616 0.82798 0.33997 -0.42700
F 	F 	0.00383 0.32802 0.66003 -0.42400
F 	F 	0.79083 0.92404 0.44141 -0.39700
F 	F 	0.20918 0.42405 0.55859 -0.39400
F 	F 	0.82081 0.92312 0.00927 -0.39000
F 	F 	0.17919 0.42305 0.99074 -0.38700
F 	F 	0.20506 0.17715 0.14959 -0.35600
F 	F 	0.79494 0.67715 0.85041 -0.35700
