data_crystal

_cell_length_a 6.94604
_cell_length_b 13.49006
_cell_length_c 20.12825
_cell_angle_alpha 104.04176
_cell_angle_beta  89.83771
_cell_angle_gamma 90.64388

_symmetry_space_group_name_	'P 1'
_symmetry_space_group_name_H-M	'P 1'

loop_
_symmetry_equiv_pos_as_xyz
  x,y,z

loop_
_atom_site_label
_atom_site_type_symbol
_atom_site_fract_x
_atom_site_fract_y
_atom_site_fract_z
_atom_site_charge
O 	O 	0.50678 0.60006 0.44995 -0.47700
O 	O 	0.17984 0.59711 0.58941 -0.48800
O 	O 	0.00457 0.39994 0.55005 -0.45300
C 	C 	0.34819 0.61902 0.61693 0.37200
O 	O 	0.17738 0.61216 0.45289 -0.47700
O 	O 	0.00210 0.41510 0.41256 -0.44000
C 	C 	0.34693 0.63899 0.43637 0.39200
O 	O 	0.50925 0.58490 0.58744 -0.48500
O 	O 	0.33757 0.43533 0.48693 -0.61500
V 	V 	0.06465 0.51200 0.50243 1.81300
O 	O 	0.67209 0.40289 0.41059 -0.46700
C 	C 	0.84056 0.38168 0.38308 0.42700
O 	O 	0.67454 0.38784 0.54711 -0.48000
C 	C 	0.84251 0.36075 0.56349 0.38500
V 	V 	0.56404 0.48800 0.49757 1.81000
O 	O 	0.84099 0.56467 0.51307 -0.65600
C 	C 	0.83543 0.10460 0.60749 -0.11200
H 	H 	0.83429 0.97912 0.69040 0.01700
H 	H 	0.82691 0.02413 0.58179 0.06800
C 	C 	0.84781 0.28171 0.60206 -0.13700
C 	C 	0.87366 0.31904 0.93190 0.02600
C 	C 	0.87452 0.39560 0.89659 -0.04900
C 	C 	0.86771 0.37100 0.82528 -0.02500
C 	C 	0.85958 0.26782 0.78706 -0.00600
C 	C 	0.85695 0.18965 0.82376 0.06400
C 	C 	0.85402 0.23963 0.71384 -0.02400
C 	C 	0.84393 0.13447 0.67928 0.04800
C 	C 	0.84154 0.05948 0.71645 -0.01700
C 	C 	0.84832 0.08640 0.78745 -0.05800
C 	C 	0.85754 0.31209 0.67355 0.02800
C 	C 	0.83547 0.17769 0.56849 0.14100
C 	C 	0.86441 0.21644 0.89630 -0.11000
H 	H 	0.86572 0.39312 0.69592 0.02700
H 	H 	0.88062 0.33985 0.98736 0.03300
H 	H 	0.86904 0.43479 0.80189 0.03500
H 	H 	0.88130 0.47491 0.92473 0.04200
H 	H 	0.84635 0.02516 0.81367 0.06000
C 	C 	0.67934 0.21890 0.22970 0.27400
C 	C 	0.78117 0.20032 0.29322 0.23700
C 	C 	0.84913 0.31253 0.31254 -0.18800
C 	C 	0.74576 0.33223 0.24885 -0.01900
C 	C 	0.93266 0.30189 0.20577 -0.06600
C 	C 	0.03326 0.28252 0.26994 0.33300
C 	C 	0.96518 0.17040 0.25077 0.18300
C 	C 	0.86351 0.18888 0.18706 -0.14800
H 	H 	0.65332 0.39860 0.24821 0.07700
H 	H 	0.99704 0.34368 0.16981 0.07000
C 	C 	0.45487 0.79456 0.70690 -0.00900
C 	C 	0.27476 0.83976 0.74866 -0.00700
H 	H 	0.20671 0.91364 0.74810 0.03600
H 	H 	0.53638 0.83049 0.67120 0.03300
C 	C 	0.35872 0.81154 0.81222 -0.08200
C 	C 	0.53924 0.76719 0.77127 -0.00600
C 	C 	0.43826 0.66117 0.75112 -0.00700
C 	C 	0.25813 0.70634 0.79284 -0.00500
C 	C 	0.17376 0.73374 0.72848 -0.00300
C 	C 	0.35428 0.68930 0.68754 -0.07900
H 	H 	0.69051 0.78121 0.78909 0.03600
H 	H 	0.50630 0.58730 0.75171 0.03700
H 	H 	0.17663 0.67045 0.82856 0.04200
H 	H 	0.02247 0.71990 0.71066 0.04800
C 	C 	0.40142 0.89186 0.39148 -0.07300
H 	H 	0.39777 0.84242 0.48506 0.02700
H 	H 	0.42383 0.01706 0.30878 0.14500
H 	H 	0.42319 0.97130 0.41800 0.06600
C 	C 	0.35866 0.71625 0.39678 -0.10400
C 	C 	0.32671 0.68117 0.06734 0.02900
C 	C 	0.31135 0.60471 0.10254 -0.04200
C 	C 	0.32277 0.62852 0.17378 -0.02300
C 	C 	0.35031 0.73075 0.21200 0.00400
C 	C 	0.36707 0.80873 0.17543 0.06200
C 	C 	0.36132 0.75827 0.28512 -0.01600
C 	C 	0.38906 0.86268 0.31973 0.06500
C 	C 	0.40460 0.93737 0.28267 -0.05300
C 	C 	0.39446 0.91104 0.21174 -0.01000
C 	C 	0.34582 0.68598 0.32538 0.01900
C 	C 	0.38685 0.81892 0.42975 0.03900
C 	C 	0.35471 0.78281 0.10302 -0.10800
H 	H 	0.32489 0.60550 0.30315 0.04900
H 	H 	0.31643 0.66107 0.01196 0.03300
H 	H 	0.30912 0.56496 0.19714 0.05300
H 	H 	0.28978 0.52614 0.07437 0.05200
H 	H 	0.40763 0.97206 0.18558 0.09800
O 	O 	0.20358 0.91492 0.91261 -0.48700
O 	O 	0.53571 0.88781 0.04712 -0.48400
O 	O 	0.71073 0.08495 0.08743 -0.45100
C 	C 	0.36623 0.86084 0.06361 0.39200
O 	O 	0.53301 0.90285 0.91060 -0.49900
O 	O 	0.70801 0.10009 0.94993 -0.46300
C 	C 	0.36472 0.88131 0.88298 0.37200
O 	O 	0.20630 0.89978 0.05010 -0.46500
O 	O 	0.37517 0.06458 0.01310 -0.61800
V 	V 	0.64820 0.98802 0.99757 1.80000
O 	O 	0.03803 0.11233 0.95284 -0.45500
C 	C 	0.87005 0.13866 0.93595 0.36400
O 	O 	0.04073 0.09730 0.08936 -0.44500
C 	C 	0.87223 0.11871 0.11682 0.41200
V 	V 	0.14878 0.01222 0.00236 1.81700
O 	O 	0.87193 0.93543 0.98690 -0.66400
N 	N 	0.82422 0.14707 0.49503 -0.18700
H 	H 	0.69017 0.16974 0.48080 0.13200
H 	H 	0.82722 0.06743 0.47806 0.11000
F 	F 	0.49535 0.18510 0.20911 -0.36800
F 	F 	0.21754 0.31513 0.29100 -0.38300
F 	F 	0.07831 0.08738 0.25218 -0.35000
F 	F 	0.70375 0.14795 0.33822 -0.39100
