data_crystal

_cell_length_a 7.75489
_cell_length_b 8.55467
_cell_length_c 27.58037
_cell_angle_alpha 90.01772
_cell_angle_beta  86.62053
_cell_angle_gamma 94.02420

_symmetry_space_group_name_	'P 1'
_symmetry_space_group_name_H-M	'P 1'

loop_
_symmetry_equiv_pos_as_xyz
  x,y,z

loop_
_atom_site_label
_atom_site_type_symbol
_atom_site_fract_x
_atom_site_fract_y
_atom_site_fract_z
_atom_site_charge
Br	Br	0.90971 0.50342 0.74229 -0.20900
Br	Br	0.10803 0.54844 0.25470 -0.21500
Br	Br	0.96711 0.82207 0.01707 -0.20000
Br	Br	0.43560 0.99753 0.99145 -0.20000
C 	C 	0.54611 0.79482 0.49864 0.36200
C 	C 	0.59965 0.65820 0.12297 -0.11000
C 	C 	0.51063 0.47662 0.64650 -0.15500
C 	C 	0.49411 0.53037 0.35354 -0.15700
C 	C 	0.64725 0.61316 0.02153 0.00100
C 	C 	0.49159 0.34073 0.97840 0.00200
C 	C 	0.46100 0.36824 0.02870 0.03700
C 	C 	0.63840 0.60504 0.97047 0.05000
C 	C 	0.54362 0.50207 0.05027 -0.02800
C 	C 	0.56365 0.46708 0.94909 -0.03400
C 	C 	0.74828 0.73142 0.04525 0.04400
C 	C 	0.45389 0.20518 0.50135 0.41300
C 	C 	0.45232 0.19375 0.95601 0.02000
C 	C 	0.71083 0.76411 0.09446 0.13900
C 	C 	0.45083 0.18276 0.90517 0.13800
C 	C 	0.50286 0.49540 0.59396 0.38100
C 	C 	0.49775 0.50631 0.40605 0.37900
C 	C 	0.68728 0.73562 0.94042 -0.05500
C 	C 	0.34075 0.27277 0.05765 -0.06100
C 	C 	0.57016 0.95864 0.49783 -0.04000
C 	C 	0.42984 0.04135 0.50213 -0.18900
C 	C 	0.58803 0.58465 0.81959 0.20500
C 	C 	0.55780 0.45735 0.89812 0.08100
C 	C 	0.41532 0.42589 0.17993 0.20600
C 	C 	0.50146 0.31150 0.82472 0.21600
C 	C 	0.57068 0.67656 0.17354 0.21700
C 	C 	0.37487 0.41574 0.72622 -0.14800
C 	C 	0.64148 0.58193 0.27487 -0.15300
C 	C 	0.36166 0.42927 0.67619 0.21100
C 	C 	0.64791 0.57100 0.32502 0.21400
C 	C 	0.67213 0.49687 0.66695 0.01900
C 	C 	0.33465 0.52239 0.33177 0.01800
C 	C 	0.68535 0.47761 0.71652 0.04700
C 	C 	0.52153 0.52455 0.10093 0.07800
C 	C 	0.32865 0.54512 0.28195 0.04900
C 	C 	0.53529 0.44179 0.74650 0.12400
C 	C 	0.48354 0.56634 0.25293 0.12700
C 	C 	0.82742 0.75836 0.35725 0.08500
C 	C 	0.99528 0.78980 0.38260 -0.17200
C 	C 	0.17724 0.24046 0.64646 0.09500
C 	C 	0.00756 0.20979 0.62194 -0.20400
C 	C 	0.71752 0.02755 0.10475 0.06200
C 	C 	0.81334 0.16773 0.12738 -0.18400
C 	C 	0.23205 0.00958 0.88369 0.07000
C 	C 	0.60576 0.59131 0.86943 -0.08500
C 	C 	0.19104 0.84436 0.86518 -0.17000
C 	C 	0.42138 0.41206 0.12962 -0.08700
C 	C 	0.66833 0.72981 0.89094 0.02700
C 	C 	0.32900 0.28840 0.10763 0.02000
C 	C 	0.50113 0.31566 0.87589 -0.12000
H 	H 	0.78871 0.52869 0.64451 0.06100
H 	H 	0.25057 0.18807 0.04206 0.07300
H 	H 	0.70236 0.01056 0.49372 0.05800
H 	H 	0.29764 0.98943 0.50623 0.11700
H 	H 	0.71923 0.79402 0.38235 0.02800
H 	H 	0.83445 0.83200 0.32377 0.03900
H 	H 	0.10749 0.76819 0.35727 0.08900
H 	H 	0.00762 0.91384 0.39455 0.07500
H 	H 	0.99605 0.71249 0.41491 0.08300
H 	H 	0.17058 0.16935 0.68045 0.02500
H 	H 	0.28363 0.20182 0.62125 0.02000
H 	H 	0.21443 0.49864 0.35337 0.05700
H 	H 	0.00863 0.28201 0.58845 0.08500
H 	H 	0.98990 0.08410 0.61203 0.08000
H 	H 	0.89745 0.23928 0.64702 0.09900
H 	H 	0.58062 0.02011 0.11983 0.03800
H 	H 	0.72019 0.04831 0.06485 0.04000
H 	H 	0.94866 0.18010 0.11183 0.09100
H 	H 	0.74990 0.27620 0.11937 0.08200
H 	H 	0.81310 0.15226 0.16737 0.10000
H 	H 	0.17746 0.09403 0.85905 0.03300
H 	H 	0.16730 0.01880 0.92062 0.03600
H 	H 	0.01368 0.38421 0.46355 0.07200
H 	H 	0.24152 0.75760 0.88972 0.09700
H 	H 	0.04878 0.82066 0.86401 0.08400
H 	H 	0.25179 0.83132 0.82804 0.10500
H 	H 	0.98632 0.61580 0.53644 0.08300
H 	H 	0.70374 0.83474 0.86960 0.06200
H 	H 	0.24367 0.20573 0.12892 0.04600
H 	H 	0.75986 0.60304 0.25263 0.12000
H 	H 	0.26002 0.38644 0.74953 0.10700
H 	H 	0.72920 0.84792 0.95479 0.09100
N 	N 	0.54253 0.44527 0.79814 -0.17300
N 	N 	0.48453 0.55889 0.20095 -0.17100
N 	N 	0.95032 0.45796 0.48688 -0.22700
N 	N 	0.04968 0.54204 0.51312 -0.23800
O 	O 	0.38925 0.73857 0.50322 -0.45500
O 	O 	0.34417 0.30549 0.20773 -0.18000
O 	O 	0.63000 0.80897 0.19547 -0.17000
O 	O 	0.46204 0.17610 0.80147 -0.18400
O 	O 	0.80571 0.59756 0.34554 -0.20900
O 	O 	0.20181 0.40180 0.65695 -0.21200
O 	O 	0.79920 0.89013 0.11560 -0.16200
O 	O 	0.41368 0.03799 0.88432 -0.19400
O 	O 	0.61075 0.26143 0.49678 -0.47100
O 	O 	0.67839 0.71163 0.49481 -0.45400
O 	O 	0.32161 0.28837 0.50519 -0.47300
O 	O 	0.35544 0.51344 0.57545 -0.43100
O 	O 	0.64456 0.48656 0.42455 -0.43200
O 	O 	0.64459 0.48650 0.56704 -0.44500
O 	O 	0.35541 0.51350 0.43296 -0.44600
O 	O 	0.61651 0.71649 0.79250 -0.17000
Zn	Zn	0.30694 0.51799 0.50562 1.23000
Zn	Zn	0.69306 0.48201 0.49438 1.23000
