data_crystal

_cell_length_a 10.05638
_cell_length_b 11.01125
_cell_length_c 12.93964
_cell_angle_alpha 91.00321
_cell_angle_beta  92.24453
_cell_angle_gamma 95.49907

_symmetry_space_group_name_	'P 1'
_symmetry_space_group_name_H-M	'P 1'

loop_
_symmetry_equiv_pos_as_xyz
  x,y,z

loop_
_atom_site_label
_atom_site_type_symbol
_atom_site_fract_x
_atom_site_fract_y
_atom_site_fract_z
_atom_site_charge
C 	C 	0.44278 0.26781 0.49785 0.32100
C 	C 	0.55691 0.73176 0.50310 0.33600
C 	C 	0.07165 0.49076 0.50867 0.02900
C 	C 	0.92792 0.50570 0.48860 -0.00000
C 	C 	0.47374 0.49803 0.69901 0.40800
C 	C 	0.52412 0.49084 0.30150 0.41600
C 	C 	0.53757 0.47135 0.19204 -0.21600
C 	C 	0.45663 0.48232 0.80948 -0.21300
C 	C 	0.31729 0.45676 0.95707 -0.12200
C 	C 	0.67465 0.47934 0.04403 -0.11200
C 	C 	0.32937 0.48082 0.85221 0.20400
C 	C 	0.66564 0.47769 0.15032 0.20400
C 	C 	0.57000 0.46494 0.87402 0.17400
C 	C 	0.42095 0.44665 0.12794 0.17100
C 	C 	0.55901 0.46764 0.97998 -0.02600
C 	C 	0.43161 0.45595 0.02182 -0.00700
C 	C 	0.40667 0.13578 0.49832 0.00800
C 	C 	0.59304 0.86193 0.51478 -0.00100
C 	C 	0.50367 0.06388 0.52499 -0.02100
C 	C 	0.50583 0.93943 0.47935 0.00900
H 	H 	0.21838 0.44675 0.98813 0.07500
H 	H 	0.77274 0.49327 0.01196 0.07100
H 	H 	0.89774 0.56633 0.42869 0.02300
H 	H 	0.10190 0.43028 0.56846 0.01700
H 	H 	0.86929 0.39293 0.59895 0.08800
H 	H 	0.13115 0.60435 0.39880 0.09900
N 	N 	0.16233 0.55037 0.45754 -0.27200
N 	N 	0.83767 0.44963 0.54246 -0.26700
O 	O 	0.56793 0.30768 0.50855 -0.43500
O 	O 	0.43207 0.69232 0.49145 -0.43100
O 	O 	0.35109 0.34002 0.48129 -0.44300
O 	O 	0.64891 0.65998 0.51871 -0.44100
O 	O 	0.59049 0.48648 0.66502 -0.44400
O 	O 	0.40951 0.51352 0.33498 -0.44100
O 	O 	0.37366 0.51882 0.63776 -0.44100
O 	O 	0.62634 0.48118 0.36224 -0.44800
Zn	Zn	0.64478 0.47840 0.51820 1.22600
Zn	Zn	0.35522 0.52160 0.48180 1.22700
O 	O 	0.29549 0.42166 0.16837 -0.20900
C 	C 	0.28202 0.30128 0.20656 0.04300
H 	H 	0.21536 0.30063 0.27304 0.03500
H 	H 	0.37802 0.26978 0.23704 0.03000
C 	C 	0.21763 0.21127 0.12342 -0.06800
H 	H 	0.11700 0.23764 0.09997 0.04600
H 	H 	0.27995 0.21426 0.05433 0.04600
C 	C 	0.20440 0.08103 0.16301 -0.14300
H 	H 	0.30483 0.05113 0.18167 0.06300
H 	H 	0.15348 0.01850 0.10244 0.05600
H 	H 	0.14480 0.07505 0.23349 0.06500
O 	O 	0.69247 0.44391 0.83483 -0.21600
C 	C 	0.69468 0.31718 0.81377 0.04400
H 	H 	0.75323 0.30792 0.74376 0.03400
H 	H 	0.59332 0.26937 0.79600 0.02700
C 	C 	0.76374 0.25374 0.90273 -0.07000
H 	H 	0.86525 0.30068 0.91963 0.04100
H 	H 	0.70491 0.25729 0.97323 0.04400
C 	C 	0.77547 0.11967 0.87642 -0.14100
H 	H 	0.67455 0.06933 0.86643 0.05700
H 	H 	0.83115 0.07809 0.94033 0.04600
H 	H 	0.82981 0.11055 0.80426 0.05800
O 	O 	0.78122 0.49481 0.21334 -0.21900
C 	C 	0.85615 0.39225 0.20641 0.04600
H 	H 	0.95823 0.42056 0.23960 0.02800
H 	H 	0.86933 0.36240 0.12514 0.01500
C 	C 	0.79491 0.28492 0.26898 -0.06900
H 	H 	0.78498 0.31495 0.35035 0.05700
H 	H 	0.69395 0.25242 0.23571 0.05100
C 	C 	0.88188 0.17888 0.26879 -0.13800
H 	H 	0.89432 0.14627 0.18834 0.04800
H 	H 	0.83376 0.10238 0.31315 0.05500
H 	H 	0.98144 0.20786 0.30608 0.05000
O 	O 	0.21552 0.49151 0.79053 -0.22000
C 	C 	0.15686 0.59878 0.81872 0.03100
H 	H 	0.19489 0.67410 0.76846 0.03400
H 	H 	0.17975 0.63023 0.90053 0.02700
C 	C 	0.00511 0.57614 0.80262 -0.02100
H 	H 	0.97871 0.56967 0.71854 0.03100
H 	H 	0.96957 0.48822 0.83773 0.03800
C 	C 	0.93476 0.67804 0.85216 -0.16800
H 	H 	0.94414 0.67357 0.93780 0.06100
H 	H 	0.82703 0.66786 0.82814 0.07700
H 	H 	0.97947 0.76863 0.82809 0.05500
C 	C 	0.42579 0.90524 0.38193 0.12100
H 	H 	0.47397 0.91186 0.30842 0.01300
O 	O 	0.30812 0.86618 0.38388 -0.18200
C 	C 	0.59953 0.10615 0.61137 0.13700
H 	H 	0.56531 0.10480 0.68956 0.00100
O 	O 	0.71538 0.14177 0.59486 -0.20700
O 	O 	0.70095 0.89906 0.58156 -0.16400
C 	C 	0.82261 0.88702 0.53232 0.03900
H 	H 	0.86965 0.97954 0.51631 0.03400
H 	H 	0.81120 0.83614 0.45646 0.03300
C 	C 	0.91506 0.82287 0.60543 -0.07000
H 	H 	0.93692 0.87898 0.67726 0.04300
H 	H 	0.86356 0.73371 0.62682 0.05500
C 	C 	0.04602 0.80029 0.55623 -0.14000
H 	H 	0.02712 0.76313 0.47634 0.07000
H 	H 	0.09846 0.73477 0.60304 0.06400
H 	H 	0.11288 0.88532 0.55343 0.07500
O 	O 	0.28121 0.08491 0.46138 -0.17000
C 	C 	0.17427 0.13084 0.51426 0.03200
H 	H 	0.08283 0.07083 0.49168 0.02900
H 	H 	0.15126 0.22077 0.48527 0.03800
C 	C 	0.19256 0.13250 0.63366 -0.06600
H 	H 	0.21870 0.04204 0.66009 0.04400
H 	H 	0.27507 0.20193 0.65975 0.05100
C 	C 	0.06638 0.16371 0.68572 -0.13000
H 	H 	0.04245 0.25673 0.66523 0.06300
H 	H 	0.08218 0.16064 0.77104 0.05400
H 	H 	0.98057 0.09730 0.66154 0.05100
