data_crystal

_cell_length_a 27.77630
_cell_length_b 8.65062
_cell_length_c 7.50224
_cell_angle_alpha 101.65384
_cell_angle_beta  95.50451
_cell_angle_gamma 92.74697

_symmetry_space_group_name_	'P 1'
_symmetry_space_group_name_H-M	'P 1'

loop_
_symmetry_equiv_pos_as_xyz
  x,y,z

loop_
_atom_site_label
_atom_site_type_symbol
_atom_site_fract_x
_atom_site_fract_y
_atom_site_fract_z
_atom_site_charge
O 	O 	0.50350 0.28612 0.61978 -0.33000
O 	O 	0.49650 0.71388 0.38022 -0.33000
O 	O 	0.49441 0.25678 0.30836 -0.32300
O 	O 	0.50559 0.74322 0.69164 -0.32300
C 	C 	0.49603 0.20100 0.45620 0.31600
C 	C 	0.50397 0.79900 0.54380 0.31600
O 	O 	0.43481 0.51470 0.65569 -0.34100
O 	O 	0.56519 0.48530 0.34431 -0.34100
O 	O 	0.42572 0.48535 0.34428 -0.34400
O 	O 	0.57428 0.51465 0.65572 -0.34400
C 	C 	0.40764 0.50050 0.50052 0.31200
C 	C 	0.59236 0.49952 0.49948 0.31200
Cu	Cu	0.50538 0.51738 0.68438 0.93300
Cu	Cu	0.49462 0.48262 0.31562 0.93300
C 	C 	0.17477 0.36222 0.42896 0.21900
C 	C 	0.82525 0.63883 0.57106 0.21900
O 	O 	0.19646 0.23726 0.34093 -0.14900
O 	O 	0.80355 0.76392 0.65872 -0.14900
N 	N 	0.20239 0.49862 0.50596 -0.16600
N 	N 	0.79764 0.50232 0.49443 -0.16600
C 	C 	0.18243 0.63064 0.59176 0.21000
C 	C 	0.81760 0.37020 0.40892 0.21000
C 	C 	0.27569 0.54465 0.35213 0.05100
C 	C 	0.72434 0.45633 0.64822 0.05100
C 	C 	0.32630 0.54246 0.35449 0.00100
C 	C 	0.67373 0.45807 0.64572 0.00100
C 	C 	0.33256 0.46487 0.64823 0.03400
C 	C 	0.66743 0.53529 0.35176 0.03400
C 	C 	0.28246 0.46300 0.64637 -0.06200
C 	C 	0.71754 0.53748 0.35373 -0.06200
C 	C 	0.25381 0.50196 0.50005 0.11000
C 	C 	0.74621 0.49899 0.50030 0.11000
C 	C 	0.10238 0.49393 0.51336 0.08100
C 	C 	0.89764 0.50702 0.48693 0.08100
C 	C 	0.12404 0.35450 0.43633 -0.09800
C 	C 	0.87598 0.64651 0.56377 -0.09800
C 	C 	0.09423 0.21422 0.36660 0.12700
C 	C 	0.90580 0.78680 0.63338 0.12700
C 	C 	0.13216 0.63139 0.59553 -0.06800
C 	C 	0.86787 0.36949 0.40501 -0.06800
C 	C 	0.35480 0.50262 0.50133 -0.05100
C 	C 	0.64521 0.49758 0.49871 -0.05100
H 	H 	0.35378 0.43439 0.76331 0.07000
H 	H 	0.64620 0.56546 0.23652 0.07000
H 	H 	0.26562 0.43108 0.75942 0.08900
H 	H 	0.73437 0.56922 0.24056 0.08900
C 	C 	0.96995 0.36278 0.41380 0.02000
C 	C 	0.03007 0.63814 0.58651 0.02000
C 	C 	0.97874 0.64252 0.57515 0.03800
C 	C 	0.02129 0.35843 0.42504 0.03800
C 	C 	0.94896 0.50421 0.49202 -0.03000
C 	C 	0.05106 0.49672 0.50824 -0.03000
C 	C 	0.93855 0.23073 0.32346 -0.04600
C 	C 	0.06147 0.77014 0.67703 -0.04600
C 	C 	0.88868 0.23406 0.32048 0.02700
C 	C 	0.11134 0.76679 0.68014 0.02700
O 	O 	0.78882 0.23930 0.33021 -0.15400
O 	O 	0.21122 0.76143 0.67084 -0.15400
C 	C 	0.04399 0.21818 0.36073 -0.09000
C 	C 	0.95603 0.78281 0.63929 -0.09000
H 	H 	0.65638 0.42735 0.75833 0.08700
H 	H 	0.34368 0.57322 0.24196 0.08700
H 	H 	0.86640 0.12872 0.25163 0.07100
H 	H 	0.13362 0.87208 0.74912 0.07100
H 	H 	0.95104 0.12228 0.25103 0.06100
H 	H 	0.04897 0.87854 0.74955 0.06100
H 	H 	0.02379 0.10603 0.31086 0.07600
H 	H 	0.97624 0.89497 0.68904 0.07600
C 	C 	0.48604 0.03598 0.44411 0.02200
C 	C 	0.51396 0.96402 0.55588 0.02200
N 	N 	0.48651 0.45643 0.03851 -0.10200
N 	N 	0.51349 0.54357 0.96149 -0.10200
N 	N 	0.47313 0.30581 0.93703 0.00800
O 	O 	0.50181 0.19289 0.94790 -0.04900
O 	O 	0.42791 0.26887 0.87412 -0.07300
N 	N 	0.52687 0.69419 0.06297 0.00800
O 	O 	0.49819 0.80711 0.05210 -0.04900
O 	O 	0.57209 0.73113 0.12588 -0.07300
N 	N 	0.11390 0.06388 0.30938 -0.02200
O 	O 	0.09619 0.97090 0.15595 -0.09600
O 	O 	0.14178 0.00680 0.42623 -0.07700
N 	N 	0.88613 0.93716 0.69056 -0.02200
O 	O 	0.90384 0.03014 0.84400 -0.09600
O 	O 	0.85827 0.99425 0.57367 -0.07700
N 	N 	0.75218 0.40926 0.79886 -0.00900
O 	O 	0.79898 0.43747 0.82911 -0.08000
O 	O 	0.73048 0.33873 0.90982 -0.08000
N 	N 	0.24789 0.59210 0.20163 -0.00900
O 	O 	0.26971 0.65989 0.08870 -0.08000
O 	O 	0.20095 0.56776 0.17403 -0.08000
N 	N 	0.44063 0.96393 0.34411 0.00300
O 	O 	0.42362 0.01021 0.19723 -0.05200
O 	O 	0.41189 0.87797 0.41826 -0.07400
N 	N 	0.55938 0.03607 0.65590 0.00300
O 	O 	0.57638 0.98979 0.80276 -0.05200
O 	O 	0.58811 0.12205 0.58176 -0.07400
