data_crystal

_cell_length_a 8.34758
_cell_length_b 14.26127
_cell_length_c 18.92851
_cell_angle_alpha 96.41055
_cell_angle_beta  90.62433
_cell_angle_gamma 91.43925

_symmetry_space_group_name_	'P 1'
_symmetry_space_group_name_H-M	'P 1'

loop_
_symmetry_equiv_pos_as_xyz
  x,y,z

loop_
_atom_site_label
_atom_site_type_symbol
_atom_site_fract_x
_atom_site_fract_y
_atom_site_fract_z
_atom_site_charge
Ba	Ba	0.84377 0.54113 0.46376 1.95300
Ba	Ba	0.34604 0.45894 0.53625 2.01000
C 	C 	0.60164 0.88209 0.26842 0.54600
C 	C 	0.01323 0.52807 0.72390 -0.03200
C 	C 	0.89134 0.39504 0.80697 -0.02700
C 	C 	0.05560 0.81868 0.26577 0.20500
C 	C 	0.82078 0.40406 0.74020 -0.04600
C 	C 	0.35439 0.55864 0.17539 -0.04000
C 	C 	0.40725 0.56264 0.24629 -0.05200
C 	C 	0.16088 0.43756 0.19881 -0.03600
C 	C 	0.18429 0.46227 0.27285 -0.04700
C 	C 	0.99853 0.46533 0.84100 0.01600
C 	C 	0.88972 0.46641 0.69758 0.01600
C 	C 	0.54047 0.78010 0.26666 -0.12600
C 	C 	0.23314 0.49229 0.14774 0.00800
C 	C 	0.31272 0.52247 0.29558 -0.00100
C 	C 	0.81319 0.38685 0.96542 -0.11700
C 	C 	0.07456 0.91928 0.24441 -0.05500
C 	C 	0.73145 0.35227 0.02158 0.15300
C 	C 	0.76577 0.39543 0.09015 -0.10100
C 	C 	0.89838 0.45524 0.10112 -0.02000
C 	C 	0.01511 0.45860 0.04856 0.00300
C 	C 	0.96314 0.43658 0.97593 0.02700
C 	C 	0.17732 0.48325 0.06817 -0.02100
C 	C 	0.50584 0.32149 0.32344 0.12300
C 	C 	0.28313 0.49575 0.01064 0.01400
C 	C 	0.22496 0.49043 0.93796 0.01100
C 	C 	0.06147 0.46353 0.91882 -0.00400
C 	C 	0.44959 0.51101 0.02291 -0.04400
C 	C 	0.18121 0.76050 0.62247 -0.05300
C 	C 	0.55046 0.53804 0.97067 -0.01500
C 	C 	0.49611 0.53252 0.90133 -0.02600
C 	C 	0.33901 0.50374 0.88472 -0.02800
C 	C 	0.70545 0.93598 0.52497 -0.06300
C 	C 	0.51582 0.79975 0.49350 -0.20600
C 	C 	0.47156 0.29525 0.24475 -0.20500
C 	C 	0.37560 0.76461 0.45752 0.42600
C 	C 	0.27644 0.82396 0.42413 -0.26700
C 	C 	0.31969 0.91883 0.42355 0.42100
C 	C 	0.46632 0.95420 0.45376 -0.10100
C 	C 	0.56491 0.89559 0.49060 0.16000
C 	C 	0.16116 0.86558 0.64389 0.35700
C 	C 	0.64857 0.08905 0.48659 0.02400
C 	C 	0.75085 0.03061 0.52091 0.03500
C 	C 	0.68749 0.18621 0.48986 -0.05600
C 	C 	0.82573 0.22362 0.52552 0.00500
C 	C 	0.18827 0.24678 0.72820 -0.09700
C 	C 	0.93462 0.16486 0.55235 -0.04500
C 	C 	0.89632 0.06852 0.55176 -0.02500
C 	C 	0.50922 0.04947 0.45182 0.02200
C 	C 	0.99659 0.24416 0.38149 0.05600
C 	C 	0.97146 0.13838 0.35861 -0.02200
C 	C 	0.68626 0.68026 0.67477 0.00400
C 	C 	0.70125 0.71604 0.75342 0.20900
C 	C 	0.35585 0.97870 0.62792 0.03000
C 	C 	0.84596 0.13955 0.24795 -0.04200
C 	C 	0.37564 0.26668 0.89167 0.01900
C 	C 	0.19141 0.21115 0.80133 0.46500
C 	C 	0.02897 0.15085 0.88596 0.01400
C 	C 	0.04179 0.68800 0.18060 -0.01600
C 	C 	0.59925 0.02696 0.82827 -0.03700
C 	C 	0.56327 0.23586 0.06191 -0.01500
C 	C 	0.23160 0.92663 0.14426 -0.05000
C 	C 	0.72028 0.18362 0.73441 -0.06700
C 	C 	0.70373 0.07583 0.72318 0.34600
C 	C 	0.05013 0.53645 0.79769 0.00300
F 	F 	0.99957 0.88423 0.64594 -0.40800
F 	F 	0.69391 0.90698 0.32886 -0.43000
F 	F 	0.75221 0.64517 0.79149 -0.44000
F 	F 	0.47457 0.94210 0.26956 -0.46300
F 	F 	0.29178 0.13411 0.79692 -0.45400
F 	F 	0.84414 0.03505 0.74324 -0.42500
F 	F 	0.32754 0.67353 0.45984 -0.54600
F 	F 	0.21357 0.97814 0.39872 -0.44900
H 	H 	0.48343 0.77203 0.31837 0.10300
H 	H 	0.58311 0.74003 0.77382 0.03000
H 	H 	0.44990 0.76516 0.22326 0.07400
H 	H 	0.39635 0.35111 0.34885 -0.01600
H 	H 	0.60424 0.37558 0.32949 -0.00800
H 	H 	0.35927 0.25168 0.23699 0.09000
H 	H 	0.45954 0.35995 0.21803 0.07500
H 	H 	0.57168 0.25473 0.21992 0.08300
H 	H 	0.67439 0.89063 0.22067 -0.02400
H 	H 	0.96896 0.95923 0.26412 0.11400
H 	H 	0.31140 0.26389 0.71304 0.10500
H 	H 	0.20871 0.88215 0.69955 0.02300
H 	H 	0.11623 0.31107 0.73028 0.07600
H 	H 	0.71250 0.20720 0.79198 0.07300
H 	H 	0.83875 0.20408 0.71431 0.08400
H 	H 	0.68755 0.05467 0.66547 0.00100
H 	H 	0.12739 0.59481 0.81950 0.06000
H 	H 	0.86896 0.33043 0.82925 0.04700
H 	H 	0.41003 0.60756 0.14294 0.04300
H 	H 	0.08023 0.37859 0.18208 0.04900
H 	H 	0.84576 0.46717 0.64368 -0.01600
H 	H 	0.34651 0.53241 0.35127 0.02100
H 	H 	0.87989 0.27606 0.39459 0.01000
H 	H 	0.74933 0.37491 0.91629 0.07500
H 	H 	0.69001 0.38516 0.13475 0.06300
H 	H 	0.17855 0.79076 0.27177 0.00300
H 	H 	0.91500 0.49349 0.15254 0.05500
H 	H 	0.50706 0.49893 0.07185 0.04800
H 	H 	0.67478 0.55663 0.98320 0.04900
H 	H 	0.57874 0.54435 0.85952 0.08700
H 	H 	0.31268 0.48757 0.82909 0.06700
H 	H 	0.97846 0.02405 0.57617 0.10100
H 	H 	0.85395 0.29851 0.52892 -0.01300
H 	H 	0.07860 0.25436 0.42851 0.01200
H 	H 	0.77907 0.89594 0.55686 0.13100
H 	H 	0.43095 0.09268 0.42410 0.09200
H 	H 	0.18029 0.95675 0.27144 0.12200
H 	H 	0.31011 0.74589 0.61538 0.05700
H 	H 	0.11321 0.73849 0.57229 0.07600
H 	H 	0.45491 0.93628 0.64627 0.06200
H 	H 	0.30705 0.02601 0.67275 0.08400
H 	H 	0.40579 0.02458 0.58999 0.04600
H 	H 	0.83996 0.21673 0.24536 0.05800
H 	H 	0.74491 0.10530 0.21540 0.06000
H 	H 	0.96233 0.10136 0.40684 0.08300
H 	H 	0.95870 0.11252 0.22344 0.04500
H 	H 	0.40316 0.32903 0.93003 0.05300
H 	H 	0.48254 0.25308 0.85815 0.06800
H 	H 	0.34873 0.20624 0.92229 0.05200
H 	H 	0.04733 0.21111 0.92808 0.04100
H 	H 	0.11626 0.09461 0.89216 0.06900
H 	H 	0.90826 0.12019 0.89368 0.04500
H 	H 	0.06049 0.63703 0.21996 0.05500
H 	H 	0.15689 0.71000 0.15758 0.04200
H 	H 	0.96658 0.65336 0.13615 0.05300
H 	H 	0.07856 0.10936 0.33021 0.08100
H 	H 	0.64008 0.09281 0.86090 0.05900
H 	H 	0.68661 0.96989 0.83112 0.10600
H 	H 	0.48645 0.00305 0.85191 0.06900
H 	H 	0.48031 0.27922 0.09641 0.03200
H 	H 	0.66802 0.21363 0.09233 0.03000
H 	H 	0.49589 0.17070 0.04042 0.03600
H 	H 	0.28937 0.99562 0.16471 0.08100
H 	H 	0.22637 0.92292 0.08543 0.06200
H 	H 	0.30433 0.86706 0.15808 0.06700
H 	H 	0.80561 0.65909 0.65473 0.03800
H 	H 	0.60178 0.61839 0.66820 0.03000
H 	H 	0.78910 0.77624 0.76121 0.05400
O 	O 	0.89023 0.43389 0.32878 -0.34300
O 	O 	0.26772 0.17064 0.55856 -0.19200
O 	O 	0.12421 0.17619 0.67844 -0.13400
O 	O 	0.13658 0.44238 0.41711 -0.49100
O 	O 	0.55151 0.61564 0.53179 -0.47800
O 	O 	0.39478 0.26876 0.47443 -0.32300
O 	O 	0.55075 0.24040 0.35321 -0.21700
O 	O 	0.50042 0.38016 0.76680 -0.20700
O 	O 	0.59976 0.22409 0.69652 -0.17600
O 	O 	0.63639 0.60764 0.36563 -0.33000
O 	O 	0.73761 0.53974 0.24246 -0.21500
O 	O 	0.62875 0.75370 0.63914 -0.20100
O 	O 	0.06653 0.28448 0.32539 -0.22500
O 	O 	0.66887 0.71900 0.25368 -0.14300
O 	O 	0.79491 0.73127 0.52562 -0.32000
O 	O 	0.04595 0.65876 0.39947 -0.31900
O 	O 	0.97692 0.82469 0.46364 -0.16400
O 	O 	0.23511 0.91866 0.59391 -0.19900
O 	O 	0.82778 0.11849 0.31866 -0.12500
O 	O 	0.24317 0.28833 0.85076 -0.24700
O 	O 	0.03431 0.18161 0.81763 -0.20500
O 	O 	0.96031 0.76607 0.21235 -0.17300
O 	O 	0.96805 0.82344 0.32941 -0.17400
O 	O 	0.56651 0.04261 0.75728 -0.18300
O 	O 	0.60990 0.28487 0.00454 -0.21800
O 	O 	0.07420 0.91953 0.16951 -0.13200
O 	O 	0.29947 0.56615 0.67126 -0.34400
O 	O 	0.05311 0.55770 0.58289 -0.49100
O 	O 	0.55330 0.39244 0.63437 -0.35200
O 	O 	0.12162 0.71496 0.67852 -0.16800
O 	O 	0.63818 0.38444 0.46821 -0.49100
O 	O 	0.14374 0.34132 0.60054 -0.36800
P 	P 	0.06414 0.40725 0.34090 0.33900
P 	P 	0.62206 0.71938 0.54749 0.38500
P 	P 	0.07244 0.78131 0.39974 0.40100
P 	P 	0.12556 0.59283 0.65911 0.33800
P 	P 	0.11962 0.21662 0.59465 0.30300
P 	P 	0.60970 0.60726 0.27472 0.31300
P 	P 	0.56970 0.26804 0.44516 0.31400
P 	P 	0.62545 0.34736 0.71041 0.31100
