data_crystal

_cell_length_a 19.77610
_cell_length_b 11.29120
_cell_length_c 18.70657
_cell_angle_alpha 89.95937
_cell_angle_beta  90.79913
_cell_angle_gamma 90.00786

_symmetry_space_group_name_	'P 1'
_symmetry_space_group_name_H-M	'P 1'

loop_
_symmetry_equiv_pos_as_xyz
  x,y,z

loop_
_atom_site_label
_atom_site_type_symbol
_atom_site_fract_x
_atom_site_fract_y
_atom_site_fract_z
_atom_site_charge
C 	C 	0.76174 0.52282 0.63876 0.33900
C 	C 	0.23825 0.52272 0.36125 0.33800
C 	C 	0.26174 0.02282 0.63876 0.37400
C 	C 	0.73825 0.02272 0.36125 0.37300
C 	C 	0.80631 0.13153 0.45234 -0.06100
C 	C 	0.19371 0.13162 0.54758 -0.06100
C 	C 	0.30631 0.63153 0.45234 -0.06200
C 	C 	0.69371 0.63163 0.54758 -0.06200
C 	C 	0.74485 0.05499 0.43788 -0.03300
C 	C 	0.25516 0.05509 0.56213 -0.03300
C 	C 	0.24485 0.55499 0.43788 -0.05000
C 	C 	0.75516 0.55509 0.56213 -0.05100
C 	C 	0.75630 0.08711 0.57603 -0.02500
C 	C 	0.24371 0.08709 0.42396 -0.02500
C 	C 	0.25630 0.58711 0.57603 -0.05600
C 	C 	0.74371 0.58709 0.42396 -0.05600
C 	C 	0.75018 0.95456 0.56278 -0.08100
C 	C 	0.24983 0.95456 0.43735 -0.08100
C 	C 	0.25018 0.45456 0.56278 -0.05100
C 	C 	0.74983 0.45456 0.43735 -0.05100
C 	C 	0.81780 0.13187 0.53333 -0.05800
C 	C 	0.18222 0.13189 0.46659 -0.05800
C 	C 	0.31780 0.63187 0.53333 -0.05200
C 	C 	0.68222 0.63189 0.46659 -0.05100
C 	C 	0.01398 0.20116 0.46224 0.05300
C 	C 	0.98609 0.20119 0.53795 0.05300
C 	C 	0.51398 0.70116 0.46224 0.05500
C 	C 	0.48609 0.70119 0.53795 0.05500
C 	C 	0.06392 0.40489 0.47611 -0.05200
C 	C 	0.93608 0.40486 0.52384 -0.05200
C 	C 	0.56392 0.90489 0.47611 -0.05100
C 	C 	0.43608 0.90486 0.52384 -0.05100
C 	C 	0.94176 0.38083 0.44328 -0.04700
C 	C 	0.05824 0.38098 0.55670 -0.04700
C 	C 	0.44176 0.88084 0.44328 -0.04700
C 	C 	0.55824 0.88098 0.55670 -0.04700
C 	C 	0.01217 0.32940 0.43116 -0.07800
C 	C 	0.98784 0.32948 0.56887 -0.07800
C 	C 	0.51217 0.82940 0.43116 -0.08000
C 	C 	0.48784 0.82948 0.56887 -0.08000
C 	C 	0.81805 0.02489 0.04704 -0.00900
C 	C 	0.18751 0.01083 0.95551 -0.00900
C 	C 	0.31958 0.53042 0.04878 -0.05000
C 	C 	0.68173 0.52408 0.95294 -0.05100
C 	C 	0.77257 0.11826 0.65101 0.33600
C 	C 	0.22745 0.11820 0.34897 0.33600
C 	C 	0.27257 0.61826 0.65101 0.33900
C 	C 	0.72744 0.61820 0.34897 0.33900
C 	C 	0.81787 0.02129 0.96633 -0.02200
C 	C 	0.18500 0.01613 0.03568 -0.02100
C 	C 	0.32235 0.53617 0.96851 -0.05200
C 	C 	0.68167 0.52156 0.03373 -0.05200
C 	C 	0.69014 0.01507 0.02937 -0.02000
C 	C 	0.31806 0.03344 0.97069 -0.01300
C 	C 	0.19291 0.51301 0.03068 -0.06300
C 	C 	0.80934 0.51532 0.97028 -0.06400
C 	C 	0.74346 0.20159 0.06076 -0.04400
C 	C 	0.24595 0.20009 0.93782 -0.04400
C 	C 	0.24478 0.70459 0.06111 -0.05300
C 	C 	0.75576 0.70164 0.93887 -0.04900
C 	C 	0.74785 0.06992 0.07477 -0.07500
C 	C 	0.25364 0.06794 0.92609 -0.07700
C 	C 	0.24929 0.57270 0.07558 -0.05100
C 	C 	0.75169 0.56994 0.92502 -0.05300
C 	C 	0.76098 0.10372 0.93588 -0.06300
C 	C 	0.23989 0.10219 0.06472 -0.06300
C 	C 	0.26129 0.60580 0.93643 -0.05400
C 	C 	0.73866 0.60385 0.06393 -0.05200
C 	C 	0.69388 0.04236 0.94833 -0.01600
C 	C 	0.30820 0.04425 0.05249 -0.01900
C 	C 	0.20009 0.52699 0.94850 -0.05000
C 	C 	0.80586 0.54287 0.05125 -0.04900
C 	C 	0.75894 0.21908 0.98060 -0.06500
C 	C 	0.23839 0.21762 0.01954 -0.06400
C 	C 	0.24609 0.72222 0.97887 -0.05500
C 	C 	0.74028 0.71923 0.01898 -0.06400
C 	C 	0.99861 0.48135 0.04065 -0.05000
C 	C 	0.00044 0.48147 0.95945 -0.05000
C 	C 	0.49471 0.98001 0.04243 -0.11300
C 	C 	0.49185 0.98021 0.96155 -0.11400
C 	C 	0.06665 0.29215 0.02751 -0.06100
C 	C 	0.93375 0.29007 0.97190 -0.06100
C 	C 	0.56628 0.79486 0.02864 -0.06200
C 	C 	0.43736 0.77094 0.97277 -0.05700
C 	C 	0.94611 0.28223 0.05337 -0.04800
C 	C 	0.05433 0.28371 0.94615 -0.04800
C 	C 	0.44493 0.77980 0.05481 -0.05400
C 	C 	0.55724 0.79835 0.94634 -0.05300
C 	C 	0.96771 0.34164 0.64443 0.35700
C 	C 	0.03230 0.34159 0.35558 0.35700
C 	C 	0.46771 0.84164 0.64443 0.35900
C 	C 	0.53230 0.84159 0.35557 0.35800
C 	C 	0.00957 0.35261 0.06952 -0.05800
C 	C 	0.99030 0.35253 0.93026 -0.05900
C 	C 	0.50799 0.85230 0.07055 -0.04600
C 	C 	0.48803 0.85174 0.93152 -0.04900
C 	C 	0.76059 0.53391 0.84865 0.33100
C 	C 	0.24002 0.53598 0.15210 0.32800
C 	C 	0.26138 0.03210 0.84951 0.37900
C 	C 	0.73926 0.03372 0.15120 0.37800
C 	C 	0.77485 0.13321 0.85902 0.33900
C 	C 	0.22561 0.13215 0.14144 0.33800
C 	C 	0.27490 0.63365 0.85921 0.33000
C 	C 	0.72506 0.63337 0.14088 0.33000
C 	C 	0.96928 0.35338 0.85356 0.34800
C 	C 	0.03080 0.35340 0.14630 0.34800
C 	C 	0.46790 0.85335 0.85450 0.34300
C 	C 	0.52972 0.85325 0.14710 0.34100
C 	C 	0.68433 0.12864 0.46565 -0.05400
C 	C 	0.31571 0.12869 0.53430 -0.05400
C 	C 	0.18433 0.62864 0.46565 -0.05400
C 	C 	0.81571 0.62869 0.53430 -0.05400
C 	C 	0.68928 0.14255 0.54725 -0.05600
C 	C 	0.31075 0.14258 0.45269 -0.05500
C 	C 	0.18928 0.64255 0.54725 -0.05100
C 	C 	0.81075 0.64258 0.45269 -0.05100
C 	C 	0.75509 0.93712 0.48137 -0.08300
C 	C 	0.24491 0.93718 0.51877 -0.08300
C 	C 	0.25509 0.43712 0.48137 -0.06000
C 	C 	0.74491 0.43718 0.51877 -0.06000
Cr	Cr	0.88569 0.49286 0.74531 1.51100
Cr	Cr	0.11431 0.49286 0.25469 1.51100
Cr	Cr	0.38569 0.99286 0.74531 1.50000
Cr	Cr	0.61431 0.99286 0.25469 1.50000
Cr	Cr	0.72988 0.33227 0.74819 1.51500
Cr	Cr	0.27012 0.33227 0.25181 1.51500
Cr	Cr	0.22988 0.83227 0.74819 1.51300
Cr	Cr	0.77012 0.83227 0.25181 1.51300
Cr	Cr	0.88812 0.17859 0.75301 1.51800
Cr	Cr	0.11188 0.17859 0.24699 1.51800
Cr	Cr	0.38812 0.67859 0.75301 1.51600
Cr	Cr	0.61188 0.67859 0.24699 1.51600
H 	H 	0.63625 0.09054 0.44949 0.05400
H 	H 	0.36378 0.09054 0.55049 0.05400
H 	H 	0.13625 0.59054 0.44949 0.04000
H 	H 	0.86378 0.59054 0.55049 0.04000
H 	H 	0.85847 0.06602 0.54474 0.07100
H 	H 	0.14153 0.06605 0.45524 0.07100
H 	H 	0.35847 0.56602 0.54474 0.06200
H 	H 	0.64153 0.56605 0.45524 0.06200
H 	H 	0.80754 0.90766 0.47170 0.04600
H 	H 	0.19243 0.90779 0.52846 0.04600
H 	H 	0.30754 0.40766 0.47170 0.05100
H 	H 	0.69243 0.40779 0.52846 0.05100
H 	H 	0.79138 0.90571 0.59102 0.03600
H 	H 	0.20863 0.90569 0.40915 0.03600
H 	H 	0.29138 0.40571 0.59102 0.04000
H 	H 	0.70863 0.40569 0.40915 0.04000
H 	H 	0.06519 0.17977 0.47020 0.04300
H 	H 	0.93489 0.17968 0.53007 0.04300
H 	H 	0.56519 0.67976 0.47019 0.04200
H 	H 	0.43489 0.67968 0.53007 0.04200
H 	H 	0.61588 0.89117 0.45852 0.02800
H 	H 	0.38412 0.89114 0.54144 0.02800
H 	H 	0.11588 0.39117 0.45853 0.03400
H 	H 	0.88412 0.39114 0.54144 0.03400
H 	H 	0.59742 0.81744 0.57521 0.03900
H 	H 	0.40260 0.81722 0.42487 0.03900
H 	H 	0.09742 0.31744 0.57521 0.04200
H 	H 	0.90260 0.31722 0.42487 0.04200
H 	H 	0.93459 0.46440 0.41290 0.03700
H 	H 	0.06536 0.46460 0.58697 0.03700
H 	H 	0.43459 0.96440 0.41290 0.02900
H 	H 	0.56536 0.96460 0.58697 0.02900
H 	H 	0.94999 0.49893 0.53220 0.04200
H 	H 	0.04999 0.49893 0.46762 0.04200
H 	H 	0.44999 0.99893 0.53220 0.03200
H 	H 	0.54999 0.99893 0.46762 0.03200
H 	H 	0.83384 0.93606 0.06563 0.01200
H 	H 	0.17970 0.91953 0.93886 0.01300
H 	H 	0.33277 0.43850 0.06406 0.04100
H 	H 	0.66627 0.43507 0.93460 0.04100
H 	H 	0.68355 0.21739 0.44032 0.03800
H 	H 	0.31651 0.21745 0.55955 0.03800
H 	H 	0.18355 0.71739 0.44032 0.03500
H 	H 	0.81651 0.71745 0.55955 0.03500
H 	H 	0.85818 0.08529 0.06688 0.03300
H 	H 	0.14280 0.05806 0.93259 0.03500
H 	H 	0.35954 0.58598 0.07322 0.03700
H 	H 	0.64139 0.58327 0.93266 0.03700
H 	H 	0.86951 0.04267 0.94911 0.04000
H 	H 	0.13280 0.04072 0.04986 0.03900
H 	H 	0.37096 0.57168 0.95341 0.04100
H 	H 	0.63011 0.54461 0.05063 0.04000
H 	H 	0.80898 0.92979 0.94737 0.00900
H 	H 	0.19306 0.92750 0.05900 0.00900
H 	H 	0.32271 0.44468 0.94646 0.03700
H 	H 	0.69017 0.43024 0.05331 0.03700
H 	H 	0.69861 0.92320 0.03677 0.00800
H 	H 	0.33831 0.94772 0.95550 0.00500
H 	H 	0.19899 0.42242 0.04532 0.03800
H 	H 	0.80131 0.42333 0.96255 0.03900
H 	H 	0.69111 0.95986 0.91633 0.00300
H 	H 	0.31064 0.95610 0.07847 0.00400
H 	H 	0.20623 0.43975 0.92227 0.03200
H 	H 	0.81025 0.46038 0.08335 0.03100
H 	H 	0.69186 0.23417 0.07305 0.03200
H 	H 	0.29052 0.24944 0.91785 0.03100
H 	H 	0.19678 0.73855 0.08346 0.03000
H 	H 	0.80727 0.73461 0.92644 0.03100
H 	H 	0.78023 0.25069 0.09513 0.03000
H 	H 	0.20118 0.23390 0.90779 0.03100
H 	H 	0.28730 0.75211 0.08761 0.03100
H 	H 	0.71879 0.75029 0.90443 0.02900
H 	H 	0.80994 0.24900 0.97990 0.03800
H 	H 	0.18849 0.24892 0.02670 0.03800
H 	H 	0.27923 0.79485 0.96423 0.03300
H 	H 	0.68911 0.74877 0.01930 0.03900
H 	H 	0.72317 0.28224 0.95649 0.04200
H 	H 	0.27703 0.28009 0.03957 0.04100
H 	H 	0.19414 0.74762 0.96313 0.03700
H 	H 	0.77594 0.78286 0.04295 0.04000
H 	H 	0.64047 0.04163 0.04992 0.03900
H 	H 	0.35674 0.09972 0.95693 0.03100
H 	H 	0.14316 0.54650 0.04714 0.04000
H 	H 	0.85858 0.54258 0.94951 0.04100
H 	H 	0.68480 0.23563 0.56211 0.04600
H 	H 	0.31522 0.23568 0.43776 0.04600
H 	H 	0.18480 0.73563 0.56211 0.04200
H 	H 	0.81522 0.73568 0.43776 0.04200
H 	H 	0.65119 0.10066 0.93154 0.03100
H 	H 	0.34834 0.10085 0.07673 0.03100
H 	H 	0.15442 0.56873 0.92452 0.03200
H 	H 	0.84779 0.60307 0.06747 0.03300
H 	H 	0.03632 0.54634 0.06018 0.03700
H 	H 	0.96333 0.54690 0.93962 0.03700
H 	H 	0.53334 0.04518 0.05953 0.07300
H 	H 	0.45067 0.03647 0.94298 0.07600
H 	H 	0.94920 0.51490 0.05898 0.03400
H 	H 	0.04968 0.51585 0.94145 0.03400
H 	H 	0.44671 0.01324 0.06415 0.07200
H 	H 	0.53774 0.02511 0.94093 0.07200
H 	H 	0.60891 0.84608 0.04518 0.03300
H 	H 	0.38512 0.78224 0.95469 0.03600
H 	H 	0.10739 0.35187 0.03635 0.03800
H 	H 	0.89166 0.34630 0.96129 0.03800
H 	H 	0.59771 0.85058 0.92095 0.02700
H 	H 	0.39976 0.82140 0.07855 0.02900
H 	H 	0.09730 0.32225 0.91647 0.03100
H 	H 	0.90226 0.31782 0.08300 0.03100
H 	H 	0.95405 0.18856 0.06974 0.03800
H 	H 	0.04841 0.18960 0.92968 0.03800
H 	H 	0.45146 0.69034 0.07859 0.03500
H 	H 	0.55938 0.70804 0.92345 0.03400
H 	H 	0.92461 0.20071 0.95055 0.04400
H 	H 	0.07794 0.20337 0.04917 0.04400
H 	H 	0.45174 0.67936 0.95876 0.04000
H 	H 	0.57294 0.70216 0.04575 0.04300
H 	H 	0.64534 0.09967 0.57255 0.04900
H 	H 	0.35469 0.09972 0.42743 0.04900
H 	H 	0.14534 0.59967 0.57255 0.03400
H 	H 	0.85469 0.59972 0.42743 0.03400
H 	H 	0.72171 0.86752 0.46273 0.03900
H 	H 	0.27825 0.86758 0.53752 0.03900
H 	H 	0.22171 0.36752 0.46273 0.03700
H 	H 	0.77825 0.36758 0.53752 0.03700
H 	H 	0.70149 0.92078 0.58313 0.03100
H 	H 	0.29853 0.92077 0.41706 0.03100
H 	H 	0.20149 0.42078 0.58313 0.03200
H 	H 	0.79853 0.42077 0.41706 0.03200
H 	H 	0.85028 0.09411 0.42540 0.07600
H 	H 	0.14974 0.09423 0.57455 0.07600
H 	H 	0.35028 0.59411 0.42540 0.06900
H 	H 	0.64974 0.59423 0.57455 0.06900
H 	H 	0.79898 0.22223 0.43142 0.03800
H 	H 	0.20105 0.22234 0.56839 0.03800
H 	H 	0.29899 0.72223 0.43142 0.03700
H 	H 	0.70105 0.72234 0.56839 0.03700
H 	H 	0.83462 0.21870 0.55254 0.03800
H 	H 	0.16540 0.21870 0.44726 0.03800
H 	H 	0.33462 0.71870 0.55253 0.03700
H 	H 	0.66540 0.71870 0.44726 0.03700
O 	O 	0.95721 0.44941 0.66548 -0.46700
O 	O 	0.04279 0.44941 0.33452 -0.46700
O 	O 	0.45721 0.94941 0.66548 -0.47600
O 	O 	0.54279 0.94941 0.33452 -0.47700
O 	O 	0.73626 0.21201 0.82656 -0.49600
O 	O 	0.26374 0.21201 0.17344 -0.49600
O 	O 	0.23626 0.71201 0.82656 -0.49900
O 	O 	0.76374 0.71201 0.17344 -0.49800
O 	O 	0.83252 0.09530 0.83600 -0.45300
O 	O 	0.16748 0.09530 0.16400 -0.45300
O 	O 	0.33252 0.59530 0.83600 -0.45800
O 	O 	0.66748 0.59530 0.16400 -0.45800
O 	O 	0.94638 0.25394 0.82694 -0.50500
O 	O 	0.05362 0.25394 0.17306 -0.50500
O 	O 	0.44638 0.75394 0.82694 -0.50700
O 	O 	0.55362 0.75394 0.17306 -0.50700
O 	O 	0.83456 0.33457 0.74884 -0.71500
O 	O 	0.16544 0.33457 0.25116 -0.71400
O 	O 	0.33456 0.83457 0.74884 -0.72100
O 	O 	0.66544 0.83457 0.25116 -0.72100
O 	O 	0.82073 0.54124 0.66825 -0.50600
O 	O 	0.17927 0.54124 0.33175 -0.50600
O 	O 	0.32073 0.04124 0.66825 -0.49300
O 	O 	0.67927 0.04124 0.33175 -0.49300
O 	O 	0.71424 0.45506 0.66371 -0.45300
O 	O 	0.28576 0.45506 0.33629 -0.45300
O 	O 	0.21424 0.95506 0.66371 -0.48800
O 	O 	0.78576 0.95506 0.33629 -0.48700
O 	O 	0.73678 0.20487 0.67591 -0.50300
O 	O 	0.26322 0.20487 0.32409 -0.50400
O 	O 	0.23678 0.70487 0.67591 -0.50900
O 	O 	0.76322 0.70487 0.32409 -0.50900
O 	O 	0.83307 0.08759 0.67349 -0.44800
O 	O 	0.16693 0.08759 0.32651 -0.44900
O 	O 	0.33307 0.58759 0.67349 -0.45700
O 	O 	0.66693 0.58759 0.32651 -0.45700
O 	O 	0.94689 0.24680 0.67630 -0.48000
O 	O 	0.05311 0.24680 0.32370 -0.48000
O 	O 	0.44689 0.74680 0.67630 -0.48200
O 	O 	0.55311 0.74680 0.32370 -0.48200
O 	O 	0.95665 0.45712 0.82798 -0.47300
O 	O 	0.04335 0.45712 0.17202 -0.47200
O 	O 	0.45665 0.95712 0.82798 -0.48500
O 	O 	0.54335 0.95712 0.17202 -0.48500
O 	O 	0.82022 0.54839 0.81889 -0.49900
O 	O 	0.17978 0.54839 0.18111 -0.49800
O 	O 	0.32022 0.04839 0.81889 -0.49000
O 	O 	0.67978 0.04839 0.18111 -0.49000
O 	O 	0.71368 0.46277 0.82621 -0.46400
O 	O 	0.28632 0.46277 0.17379 -0.46400
O 	O 	0.21368 0.96277 0.82621 -0.50200
O 	O 	0.78632 0.96277 0.17379 -0.50200
Br	Br	0.97903 0.07160 0.40327 -0.26500
Br	Br	0.02110 0.07172 0.59708 -0.26500
Br	Br	0.47902 0.57160 0.40327 -0.28000
Br	Br	0.52110 0.57172 0.59708 -0.28000
