data_crystal

_cell_length_a 8.92763
_cell_length_b 10.64263
_cell_length_c 10.05433
_cell_angle_alpha 89.95815
_cell_angle_beta  88.99469
_cell_angle_gamma 92.51781

_symmetry_space_group_name_	'P 1'
_symmetry_space_group_name_H-M	'P 1'

loop_
_symmetry_equiv_pos_as_xyz
  x,y,z

loop_
_atom_site_label
_atom_site_type_symbol
_atom_site_fract_x
_atom_site_fract_y
_atom_site_fract_z
_atom_site_charge
C 	C 	0.50435 0.26114 0.49982 0.39500
C 	C 	0.60251 0.93658 0.40950 -0.07400
C 	C 	0.50299 0.87072 0.49609 -0.07700
C 	C 	0.39505 0.93247 0.56764 0.02300
C 	C 	0.34950 0.92317 0.71084 -0.06700
C 	C 	0.35029 0.06569 0.71005 -0.11100
C 	C 	0.38846 0.43993 0.07210 0.01100
C 	C 	0.61400 0.55922 0.06929 0.04700
C 	C 	0.61046 0.56516 0.92586 0.03900
C 	C 	0.39346 0.43116 0.93105 0.05600
C 	C 	0.22795 0.44794 0.92485 -0.09200
C 	C 	0.21926 0.49935 0.50075 0.34600
C 	C 	0.22844 0.47447 0.07334 0.09200
C 	C 	0.50221 0.73891 0.49956 0.35000
C 	C 	0.78071 0.49994 0.49936 0.35300
C 	C 	0.06543 0.49902 0.50127 -0.04900
C 	C 	0.93449 0.49917 0.49930 -0.07700
C 	C 	0.39729 0.06059 0.56717 0.08600
C 	C 	0.50948 0.12886 0.49762 -0.20200
C 	C 	0.60999 0.06697 0.41167 0.21100
H 	H 	0.15395 0.41349 0.13789 0.01400
H 	H 	0.68133 0.88708 0.34772 0.07000
H 	H 	0.23559 0.87816 0.72506 0.05000
H 	H 	0.43785 0.88507 0.77417 0.05700
H 	H 	0.23639 0.10220 0.72042 0.05400
H 	H 	0.43741 0.11062 0.77433 0.06400
H 	H 	0.20071 0.53103 0.86403 0.06800
N 	N 	0.49901 0.49914 0.14280 -0.22000
N 	N 	0.49901 0.49918 0.85715 -0.23000
O 	O 	0.50002 0.31679 0.61469 -0.45500
O 	O 	0.50000 0.31676 0.38535 -0.45200
O 	O 	0.28535 0.50002 0.61465 -0.45100
O 	O 	0.28534 0.49998 0.38531 -0.45300
O 	O 	0.50000 0.68324 0.61465 -0.44600
O 	O 	0.49998 0.68321 0.38531 -0.44200
O 	O 	0.71466 0.50002 0.61469 -0.45600
O 	O 	0.71465 0.49998 0.38535 -0.45800
Zn	Zn	0.50001 0.50002 0.65313 1.22900
Zn	Zn	0.49999 0.49998 0.34687 1.23000
O 	O 	0.72112 0.12822 0.33562 -0.30500
H 	H 	0.74057 0.21411 0.37064 0.16200
C 	C 	0.13663 0.32775 0.88324 -0.02400
C 	C 	0.16272 0.20912 0.96534 -0.16300
H 	H 	0.11947 0.21794 0.06872 0.06900
H 	H 	0.28350 0.18889 0.96699 0.06400
H 	H 	0.10038 0.12756 0.92068 0.06100
H 	H 	0.01553 0.34612 0.89011 0.03300
H 	H 	0.16314 0.30856 0.77710 0.04000
O 	O 	0.21458 0.60386 0.09551 -0.27700
H 	H 	0.21322 0.61680 0.19286 0.15300
C 	C 	0.74842 0.61579 0.13967 -0.08500
C 	C 	0.86727 0.51703 0.15236 -0.13300
H 	H 	0.81795 0.42446 0.18558 0.06900
H 	H 	0.95327 0.55079 0.22349 0.07500
H 	H 	0.92206 0.49846 0.05611 0.06100
H 	H 	0.79997 0.69995 0.09035 0.05100
H 	H 	0.71424 0.65637 0.23533 0.04700
C 	C 	0.71751 0.65909 0.85259 -0.08700
C 	C 	0.87911 0.61911 0.83374 -0.13500
H 	H 	0.88288 0.51550 0.82617 0.06700
H 	H 	0.92801 0.66055 0.74035 0.06700
H 	H 	0.95173 0.65595 0.91423 0.05900
H 	H 	0.67954 0.67800 0.75430 0.04900
H 	H 	0.71508 0.75323 0.89983 0.04900
