data_crystal

_cell_length_a 10.99573
_cell_length_b 11.11810
_cell_length_c 18.74952
_cell_angle_alpha 89.81162
_cell_angle_beta  90.20682
_cell_angle_gamma 119.49113

_symmetry_space_group_name_	'P 1'
_symmetry_space_group_name_H-M	'P 1'

loop_
_symmetry_equiv_pos_as_xyz
  x,y,z

loop_
_atom_site_label
_atom_site_type_symbol
_atom_site_fract_x
_atom_site_fract_y
_atom_site_fract_z
_atom_site_charge
C 	C 	0.52061 0.45931 0.14757 0.46600
C 	C 	0.53996 0.06112 0.14749 0.44300
C 	C 	0.93814 0.47845 0.14740 0.42300
C 	C 	0.45327 0.52124 0.85433 0.44500
C 	C 	0.06820 0.54739 0.85432 0.45200
C 	C 	0.47899 0.93222 0.85442 0.46200
C 	C 	0.40550 0.00517 0.46126 -0.03400
C 	C 	0.09649 0.45413 0.44537 0.00400
C 	C 	0.61475 0.58408 0.46904 0.00100
C 	C 	0.12551 0.47237 0.51943 -0.01000
C 	C 	0.37429 0.93742 0.52678 0.03300
C 	C 	0.61694 0.58931 0.54348 0.00600
C 	C 	0.71347 0.94195 0.55843 -0.01800
C 	C 	0.98292 0.71230 0.54911 -0.06300
C 	C 	0.34516 0.23544 0.58775 -0.04900
C 	C 	0.07948 0.76827 0.40954 -0.06700
C 	C 	0.79009 0.15863 0.46562 -0.05300
C 	C 	0.27308 0.25761 0.44804 -0.05200
C 	C 	0.85279 0.03806 0.55109 -0.06000
C 	C 	0.95751 0.80000 0.50618 -0.07600
C 	C 	0.22529 0.12875 0.55808 -0.02200
C 	C 	0.00728 0.82959 0.43674 0.05500
C 	C 	0.89065 0.14566 0.50433 -0.01700
C 	C 	0.18668 0.14425 0.48966 -0.03000
C 	C 	0.52014 0.45175 0.35662 0.40100
C 	C 	0.57519 0.11987 0.36224 0.31900
C 	C 	0.95186 0.48832 0.34889 0.36100
C 	C 	0.46156 0.51531 0.64906 0.39200
C 	C 	0.11881 0.57572 0.63756 0.31200
C 	C 	0.45471 0.87549 0.63786 0.30500
C 	C 	0.49269 0.96991 0.92948 -0.15700
C 	C 	0.02948 0.52326 0.92925 -0.15300
C 	C 	0.47729 0.50720 0.92949 -0.17600
C 	C 	0.00120 0.49119 0.07704 -0.12100
C 	C 	0.48927 0.99777 0.07732 -0.13300
C 	C 	0.50686 0.50991 0.07741 -0.18200
C 	C 	0.42374 0.03676 0.95803 0.09700
C 	C 	0.96097 0.38901 0.95780 0.09600
C 	C 	0.61243 0.57558 0.95884 0.11200
C 	C 	0.96073 0.37289 0.03256 0.06700
C 	C 	0.40883 0.03737 0.03282 0.07500
C 	C 	0.62662 0.59059 0.03364 0.10600
C 	C 	0.54607 0.92187 0.04845 0.27700
C 	C 	0.07760 0.62242 0.04806 0.27200
C 	C 	0.37458 0.45294 0.04775 0.28400
C 	C 	0.09455 0.63830 0.97524 0.29200
C 	C 	0.54544 0.90565 0.97554 0.29400
C 	C 	0.35970 0.45401 0.97482 0.28600
C 	C 	0.35984 0.09294 0.91371 -0.12800
C 	C 	0.90371 0.27104 0.91346 -0.13000
C 	C 	0.73276 0.63901 0.91532 -0.12800
C 	C 	0.92660 0.24070 0.05926 -0.09500
C 	C 	0.30961 0.07157 0.05966 -0.09700
C 	C 	0.75826 0.68998 0.06114 -0.10500
C 	C 	0.26463 0.12769 0.94168 0.28200
C 	C 	0.86952 0.14250 0.94125 0.27800
C 	C 	0.86103 0.73412 0.94393 0.28000
C 	C 	0.88213 0.12787 0.01395 0.27600
C 	C 	0.23893 0.11579 0.01446 0.28600
C 	C 	0.87324 0.76013 0.01667 0.29000
C 	C 	0.47593 0.91972 0.56290 -0.09300
C 	C 	0.08915 0.55745 0.55942 -0.08200
C 	C 	0.51285 0.48257 0.58328 -0.12000
C 	C 	0.05312 0.53695 0.41018 -0.08400
C 	C 	0.54276 0.06888 0.43538 -0.07300
C 	C 	0.50427 0.47309 0.43334 -0.11100
C 	C 	0.60963 0.96971 0.53137 0.06800
C 	C 	0.05088 0.64386 0.52038 0.05300
C 	C 	0.42431 0.35847 0.54885 0.04900
C 	C 	0.07367 0.65563 0.44641 0.05500
C 	C 	0.64772 0.06631 0.47669 0.01400
C 	C 	0.40100 0.36262 0.47528 0.04300
Cr	Cr	0.76855 0.54132 0.25066 1.53900
Cr	Cr	0.45868 0.22723 0.25066 1.53600
Cr	Cr	0.77277 0.23145 0.25066 1.53200
Cr	Cr	0.54132 0.76855 0.74934 1.53900
Cr	Cr	0.22723 0.45868 0.74934 1.54200
Cr	Cr	0.23145 0.77277 0.74934 1.53900
H 	H 	0.37812 0.10503 0.85685 0.10000
H 	H 	0.89111 0.27794 0.85663 0.09800
H 	H 	0.72786 0.62042 0.85854 0.10300
H 	H 	0.94560 0.22360 0.11379 0.12200
H 	H 	0.27516 0.05366 0.11435 0.12800
H 	H 	0.77296 0.72459 0.11574 0.13500
H 	H 	0.32372 0.01019 0.43161 0.04700
H 	H 	0.10228 0.37394 0.41596 0.04000
H 	H 	0.69822 0.66704 0.43937 0.04100
H 	H 	0.16675 0.41359 0.54615 0.04700
H 	H 	0.27186 0.89992 0.54949 0.03900
H 	H 	0.69819 0.67591 0.57090 0.03100
H 	H 	0.68924 0.85539 0.59223 0.04100
H 	H 	0.93613 0.69000 0.60134 0.05800
H 	H 	0.37051 0.22635 0.64271 0.05600
H 	H 	0.11487 0.78959 0.35468 0.07500
H 	H 	0.82255 0.24475 0.43069 0.05100
H 	H 	0.23274 0.26491 0.39664 0.05800
H 	H 	0.93133 0.02944 0.58196 0.02600
H 	H 	0.89618 0.84211 0.52611 0.04600
H 	H 	0.15859 0.03835 0.58957 0.03000
H 	H 	0.98360 0.89374 0.40237 -0.00000
H 	H 	0.99833 0.21510 0.49746 0.02100
H 	H 	0.08632 0.07269 0.46936 0.03600
O 	O 	0.91096 0.57241 0.17101 -0.43600
O 	O 	0.42759 0.33855 0.17101 -0.43900
O 	O 	0.66145 0.08904 0.17101 -0.44100
O 	O 	0.57241 0.91096 0.82899 -0.40800
O 	O 	0.33855 0.42759 0.82899 -0.41400
O 	O 	0.08904 0.66145 0.82899 -0.40500
O 	O 	0.63975 0.52853 0.17560 -0.52500
O 	O 	0.47147 0.11122 0.17560 -0.52100
O 	O 	0.88878 0.36025 0.17560 -0.51700
O 	O 	0.52853 0.63975 0.82440 -0.48300
O 	O 	0.11122 0.47147 0.82440 -0.47500
O 	O 	0.36025 0.88878 0.82440 -0.48000
O 	O 	0.90933 0.57240 0.33154 -0.46800
O 	O 	0.42760 0.33693 0.33154 -0.47200
O 	O 	0.66307 0.09067 0.33154 -0.43500
O 	O 	0.57240 0.90933 0.66846 -0.42700
O 	O 	0.33693 0.42760 0.66846 -0.47000
O 	O 	0.09067 0.66307 0.66846 -0.43200
O 	O 	0.63824 0.52852 0.32441 -0.50700
O 	O 	0.47148 0.10972 0.32441 -0.48400
O 	O 	0.89028 0.36176 0.32441 -0.51300
O 	O 	0.52852 0.63824 0.67559 -0.52100
O 	O 	0.10972 0.47148 0.67559 -0.47300
O 	O 	0.36176 0.89028 0.67559 -0.47400
O 	O 	0.66667 0.33333 0.25063 -0.74300
O 	O 	0.33333 0.66667 0.74937 -0.74200
F 	F 	0.60194 0.86294 0.09138 -0.36800
F 	F 	0.13695 0.73556 0.09079 -0.36200
F 	F 	0.25945 0.39694 0.08994 -0.37300
F 	F 	0.17736 0.76759 0.94980 -0.36800
F 	F 	0.59567 0.82492 0.95004 -0.37200
F 	F 	0.22877 0.40423 0.94869 -0.37000
F 	F 	0.19081 0.16440 0.89733 -0.36300
F 	F 	0.83347 0.03426 0.89677 -0.37900
F 	F 	0.97128 0.80738 0.90020 -0.37100
F 	F 	0.85662 0.00490 0.04090 -0.34700
F 	F 	0.14166 0.14290 0.04177 -0.33000
F 	F 	0.99607 0.85688 0.04458 -0.34100
