data_crystal

_cell_length_a 9.93411
_cell_length_b 10.73942
_cell_length_c 13.08331
_cell_angle_alpha 91.02416
_cell_angle_beta  71.60268
_cell_angle_gamma 90.78791

_symmetry_space_group_name_	'P 1'
_symmetry_space_group_name_H-M	'P 1'

loop_
_symmetry_equiv_pos_as_xyz
  x,y,z

loop_
_atom_site_label
_atom_site_type_symbol
_atom_site_fract_x
_atom_site_fract_y
_atom_site_fract_z
_atom_site_charge
O 	O 	0.38531 0.68322 0.50000 -0.43700
O 	O 	0.61464 0.68325 0.50001 -0.43700
C 	C 	0.50461 0.73893 0.49029 0.37300
O 	O 	0.32840 0.49995 0.65361 -0.42500
O 	O 	0.55773 0.49997 0.65362 -0.44700
C 	C 	0.42411 0.47348 0.69922 0.34700
Zn	Zn	0.34688 0.49998 0.49999 1.23200
Zn	Zn	0.65312 0.50002 0.50001 1.22900
O 	O 	0.38536 0.31675 0.49999 -0.43400
O 	O 	0.61469 0.31678 0.50000 -0.43700
O 	O 	0.44227 0.50003 0.34638 -0.43400
O 	O 	0.67160 0.50005 0.34639 -0.44100
C 	C 	0.49607 0.25965 0.50370 0.36100
C 	C 	0.57775 0.50820 0.29593 0.36200
C 	C 	0.80081 0.46592 0.00661 -0.03100
H 	H 	0.83612 0.36944 0.81091 0.06400
H 	H 	0.91070 0.46279 0.95655 0.06100
C 	C 	0.62287 0.51074 0.17747 -0.09300
C 	C 	0.24274 0.38397 0.86635 0.00400
C 	C 	0.20265 0.37499 0.97862 -0.02700
C 	C 	0.29996 0.40308 0.03290 0.00000
C 	C 	0.44349 0.42607 0.97452 0.00600
C 	C 	0.48522 0.41309 0.86211 0.05900
C 	C 	0.54931 0.45194 0.02345 -0.01500
C 	C 	0.69361 0.43377 0.96295 0.03600
C 	C 	0.72908 0.39117 0.85684 -0.04000
C 	C 	0.62666 0.38168 0.80640 -0.03300
C 	C 	0.51667 0.50445 0.12713 0.10500
C 	C 	0.76703 0.50738 0.11310 0.00800
C 	C 	0.38213 0.42339 0.80981 -0.07900
H 	H 	0.26586 0.39129 0.11893 0.06900
H 	H 	0.09747 0.34288 0.02423 0.07600
H 	H 	0.65880 0.34594 0.72448 0.05700
H 	H 	0.69412 0.89106 0.53260 0.05900
C 	C 	0.31868 0.87324 0.39219 -0.03300
H 	H 	0.34742 0.78336 0.35327 0.08100
C 	C 	0.19589 0.92953 0.38535 -0.02800
C 	C 	0.15638 0.04470 0.43480 -0.02100
H 	H 	0.05730 0.08680 0.43634 0.05200
C 	C 	0.24507 0.10789 0.48196 -0.03700
H 	H 	0.20140 0.19193 0.52473 0.07400
C 	C 	0.37815 0.05803 0.47918 0.03300
C 	C 	0.40349 0.93306 0.44805 0.07200
C 	C 	0.51040 0.87128 0.47717 -0.11000
C 	C 	0.61044 0.93731 0.51155 0.04600
H 	H 	0.68407 0.11356 0.54497 0.05600
C 	C 	0.60201 0.06405 0.52196 -0.01700
C 	C 	0.48760 0.12565 0.50599 -0.08000
H 	H 	0.91881 0.35068 0.38978 0.03900
C 	C 	0.80708 0.66757 0.63576 -0.12100
H 	H 	0.69885 0.67084 0.64020 0.08900
C 	C 	0.84983 0.75074 0.70348 0.12300
C 	C 	0.98986 0.74799 0.70366 -0.08500
H 	H 	0.02579 0.80974 0.75623 0.09900
C 	C 	0.08537 0.66463 0.63741 -0.02200
H 	H 	0.18855 0.66566 0.64558 0.05900
C 	C 	0.04576 0.58220 0.56690 0.06900
C 	C 	0.90168 0.58280 0.56653 0.07300
N 	N 	0.85686 0.50120 0.50099 -0.22500
C 	C 	0.95269 0.41812 0.43919 0.00500
H 	H 	0.16951 0.35300 0.38749 0.02800
C 	C 	0.09586 0.41887 0.43846 0.04900
N 	N 	0.14245 0.50128 0.50102 -0.22000
S 	S 	0.90348 0.57783 0.15471 0.35200
O 	O 	0.96063 0.48521 0.21477 -0.20300
O 	O 	0.02261 0.62078 0.05866 -0.16000
O 	O 	0.83806 0.70254 0.23369 -0.25400
H 	H 	0.84040 0.68136 0.30638 0.17600
S 	S 	0.08793 0.85336 0.31975 0.37500
O 	O 	0.07106 0.71923 0.35192 -0.18100
O 	O 	0.94421 0.91273 0.34990 -0.20800
O 	O 	0.16503 0.86100 0.18571 -0.24100
H 	H 	0.17914 0.95117 0.17051 0.16600
N 	N 	0.75060 0.83677 0.77278 -0.02700
O 	O 	0.61891 0.83826 0.77446 -0.09100
O 	O 	0.79121 0.91496 0.83459 -0.09700
N 	N 	0.39862 0.58808 0.16334 -0.02100
O 	O 	0.28170 0.55623 0.23698 -0.08300
O 	O 	0.40361 0.69246 0.11334 -0.07000
S 	S 	0.13681 0.30778 0.79836 0.35400
O 	O 	0.08025 0.40063 0.73845 -0.20900
O 	O 	0.22735 0.21552 0.71963 -0.20400
O 	O 	0.00143 0.23111 0.88601 -0.27400
H 	H 	0.96340 0.17454 0.84093 0.15400
