data_crystal

_cell_length_a 8.40021
_cell_length_b 12.91464
_cell_length_c 18.71682
_cell_angle_alpha 98.93129
_cell_angle_beta  91.91585
_cell_angle_gamma 99.54660

_symmetry_space_group_name_	'P 1'
_symmetry_space_group_name_H-M	'P 1'

loop_
_symmetry_equiv_pos_as_xyz
  x,y,z

loop_
_atom_site_label
_atom_site_type_symbol
_atom_site_fract_x
_atom_site_fract_y
_atom_site_fract_z
_atom_site_charge
Ba	Ba	0.85278 0.54834 0.46507 1.89800
Ba	Ba	0.33706 0.45175 0.53494 1.93600
Br	Br	0.94776 0.84584 0.79337 -0.22300
Br	Br	0.56032 0.30785 0.16498 -0.21800
C 	C 	0.72664 0.88455 0.28906 -0.21900
C 	C 	0.93028 0.36700 0.08948 -0.05800
C 	C 	0.78027 0.40543 0.95288 0.03900
C 	C 	0.20002 0.77859 0.26523 0.10300
C 	C 	0.94508 0.44308 0.97480 -0.10100
C 	C 	0.71531 0.41833 0.88578 -0.07000
C 	C 	0.81388 0.46257 0.83518 0.09800
C 	C 	0.97790 0.50559 0.85679 -0.10600
C 	C 	0.04183 0.50020 0.92786 0.11100
C 	C 	0.75526 0.46217 0.76296 -0.07400
C 	C 	0.86275 0.49877 0.71296 0.01100
C 	C 	0.62928 0.77474 0.29002 0.11600
C 	C 	0.02244 0.54691 0.73377 -0.06000
C 	C 	0.07812 0.55437 0.80744 0.10500
C 	C 	0.16707 0.48969 0.06990 -0.02500
C 	C 	0.14335 0.75224 0.18475 -0.20500
C 	C 	0.22791 0.49272 0.14337 -0.01800
C 	C 	0.12437 0.44353 0.19196 0.07400
C 	C 	0.98254 0.37457 0.16215 -0.05500
C 	C 	0.22834 0.61335 0.83405 -0.05100
C 	C 	0.28656 0.61923 0.90565 -0.00800
C 	C 	0.20161 0.55210 0.95162 -0.03600
C 	C 	0.51482 0.26902 0.31129 0.05400
C 	C 	0.26542 0.53769 0.02072 0.04300
C 	C 	0.42983 0.55574 0.03796 -0.01100
C 	C 	0.39230 0.54100 0.16655 0.04800
C 	C 	0.49673 0.56593 0.10868 -0.05200
C 	C 	0.28602 0.78671 0.63009 0.12800
C 	C 	0.43897 0.55439 0.24361 -0.06100
C 	C 	0.32126 0.52044 0.29162 0.02300
C 	C 	0.16814 0.46070 0.26759 -0.08100
C 	C 	0.74975 0.18175 0.53917 0.01100
C 	C 	0.43206 0.80729 0.46812 0.00100
C 	C 	0.44073 0.23498 0.23368 -0.02000
C 	C 	0.40469 0.98200 0.44511 -0.02500
C 	C 	0.34117 0.87404 0.43906 -0.04700
C 	C 	0.57920 0.84806 0.50863 -0.06400
C 	C 	0.64063 0.95991 0.51820 0.02800
C 	C 	0.55039 0.02734 0.48602 0.02900
C 	C 	0.21583 0.87774 0.60586 -0.22700
C 	C 	0.60736 0.13886 0.49606 -0.04600
C 	C 	0.84784 0.11642 0.56554 -0.02500
C 	C 	0.79083 0.00628 0.55675 -0.02100
C 	C 	0.08612 0.19859 0.32949 0.09300
C 	C 	0.08899 0.21449 0.74797 0.06300
C 	C 	0.09962 0.10403 0.27158 -0.17100
C 	C 	0.73295 0.70843 0.68280 0.07400
C 	C 	0.75096 0.74388 0.76466 -0.02500
C 	C 	0.16397 0.18828 0.81737 -0.19000
C 	C 	0.48253 0.18561 0.69191 0.10600
C 	C 	0.45796 0.07794 0.71780 -0.20300
C 	C 	0.01141 0.43377 0.04464 0.10600
H 	H 	0.54650 0.77969 0.33476 0.01900
H 	H 	0.63365 0.63860 0.67083 -0.00700
H 	H 	0.75875 0.92288 0.34577 0.12400
H 	H 	0.75610 0.67459 0.79215 0.06700
H 	H 	0.64534 0.78001 0.78324 0.08000
H 	H 	0.55361 0.74688 0.23908 0.03100
H 	H 	0.45801 0.33607 0.33670 0.01400
H 	H 	0.64639 0.29183 0.30950 0.05700
H 	H 	0.31894 0.25626 0.23022 0.05500
H 	H 	0.43412 0.14854 0.21551 0.08700
H 	H 	0.83949 0.87632 0.26227 0.13200
H 	H 	0.15640 0.92052 0.65059 0.12000
H 	H 	0.23159 0.70856 0.15619 0.10000
H 	H 	0.13741 0.29839 0.74291 0.04700
H 	H 	0.29629 0.19846 0.81790 0.09900
H 	H 	0.13569 0.24279 0.86545 0.09400
H 	H 	0.11689 0.10477 0.82370 0.10400
H 	H 	0.58349 0.18844 0.65630 0.03800
H 	H 	0.38030 0.19344 0.65672 0.03200
H 	H 	0.52818 0.08321 0.76989 0.10900
H 	H 	0.49891 0.01763 0.67709 0.09200
H 	H 	0.21023 0.70136 0.28235 0.01700
H 	H 	0.31109 0.93488 0.58652 0.09100
H 	H 	0.33002 0.05070 0.72724 0.09800
H 	H 	0.81999 0.49148 0.65692 -0.01500
H 	H 	0.58740 0.39022 0.87351 0.07500
H 	H 	0.90830 0.32645 0.19461 0.08600
H 	H 	0.29910 0.66156 0.80028 0.08600
H 	H 	0.35551 0.53072 0.34881 -0.00200
H 	H 	0.69650 0.37005 0.98840 0.03700
H 	H 	0.82252 0.31053 0.06986 0.07700
H 	H 	0.32081 0.82733 0.27138 0.03400
H 	H 	0.50773 0.56142 0.99398 0.05900
H 	H 	0.12517 0.84569 0.56088 0.10600
H 	H 	0.33795 0.03029 0.41844 0.08600
H 	H 	0.86667 0.95829 0.57930 0.07100
H 	H 	0.79194 0.26681 0.54695 0.01700
H 	H 	0.38384 0.72314 0.46190 -0.00200
H 	H 	0.02653 0.69790 0.17865 0.12300
H 	H 	0.40618 0.81913 0.65809 0.01900
H 	H 	0.30087 0.72802 0.58184 -0.03700
H 	H 	0.76322 0.16138 0.35753 0.17600
H 	H 	0.55634 0.94347 0.12618 0.18400
H 	H 	0.80944 0.03027 0.76483 0.17200
H 	H 	0.20729 0.24497 0.34640 0.01500
H 	H 	0.89242 0.65841 0.03953 0.16900
H 	H 	0.57870 0.78857 0.03683 0.18200
H 	H 	0.95147 0.95720 0.11501 0.16800
H 	H 	0.99584 0.03917 0.26982 0.09300
H 	H 	0.20882 0.07136 0.28474 0.11000
H 	H 	0.10482 0.12723 0.21698 0.10300
H 	H 	0.84752 0.68621 0.66324 0.00600
O 	O 	0.87309 0.42589 0.32514 -0.33400
O 	O 	0.17594 0.12427 0.55341 -0.18400
O 	O 	0.12054 0.14380 0.68714 -0.20500
O 	O 	0.12242 0.43437 0.41438 -0.48700
O 	O 	0.57837 0.63380 0.53638 -0.49200
O 	O 	0.34151 0.23185 0.46551 -0.29600
O 	O 	0.48542 0.18402 0.34995 -0.20500
O 	O 	0.41446 0.45057 0.75562 -0.21200
O 	O 	0.50853 0.26740 0.75250 -0.21200
O 	O 	0.65950 0.62710 0.36881 -0.28100
O 	O 	0.63198 0.49348 0.33293 -0.28200
O 	O 	0.69583 0.79245 0.65028 -0.21800
O 	O 	0.98051 0.25872 0.30493 -0.25100
O 	O 	0.74078 0.70708 0.30191 -0.19700
O 	O 	0.84820 0.76819 0.53453 -0.33500
O 	O 	0.08116 0.68595 0.40481 -0.34000
O 	O 	0.00197 0.87105 0.44059 -0.17300
O 	O 	0.07375 0.06540 0.42369 -0.16100
O 	O 	0.01570 0.24649 0.46186 -0.24200
O 	O 	0.80047 0.10644 0.38143 -0.28700
O 	O 	0.48445 0.99373 0.28409 -0.20900
O 	O 	0.72959 0.06197 0.22781 -0.21700
O 	O 	0.09308 0.83123 0.30760 -0.19600
O 	O 	0.54772 0.89153 0.16025 -0.27900
O 	O 	0.83310 0.22457 0.83188 -0.21500
O 	O 	0.82503 0.26786 0.70869 -0.21900
O 	O 	0.80215 0.06812 0.72310 -0.28800
O 	O 	0.74619 0.72375 0.15505 -0.20800
O 	O 	0.80069 0.54225 0.14601 -0.22600
O 	O 	0.77781 0.62347 0.03039 -0.27900
O 	O 	0.60558 0.68814 0.91235 -0.20400
O 	O 	0.43246 0.81780 0.89624 -0.18600
O 	O 	0.46139 0.76815 0.02345 -0.26000
O 	O 	0.31661 0.57414 0.67490 -0.34100
O 	O 	0.25970 0.95581 0.16758 -0.20900
O 	O 	0.15202 0.82863 0.05974 -0.19000
O 	O 	0.94989 0.90189 0.14631 -0.30100
O 	O 	0.06729 0.56572 0.58563 -0.48800
O 	O 	0.53021 0.37299 0.63120 -0.35300
O 	O 	0.18536 0.74440 0.68025 -0.21800
O 	O 	0.61134 0.36629 0.46363 -0.46000
O 	O 	0.10855 0.31414 0.59520 -0.32200
P 	P 	0.04104 0.39477 0.33633 0.36900
P 	P 	0.67288 0.75403 0.55610 0.33600
P 	P 	0.13244 0.81974 0.39874 0.31700
P 	P 	0.14867 0.60532 0.66368 0.35000
P 	P 	0.05908 0.17718 0.60313 0.33800
P 	P 	0.65755 0.57108 0.27828 0.33200
P 	P 	0.51952 0.22996 0.44336 0.29800
P 	P 	0.55100 0.39253 0.72556 0.32300
S 	S 	0.99582 0.15256 0.40287 0.30500
S 	S 	0.62036 0.96297 0.24062 0.42100
S 	S 	0.87970 0.19586 0.75553 0.32500
S 	S 	0.70887 0.61410 0.11286 0.36700
S 	S 	0.45119 0.72542 0.93390 0.34700
S 	S 	0.13021 0.86300 0.13874 0.43400
