data_crystal

_cell_length_a 15.41604
_cell_length_b 15.60603
_cell_length_c 9.81720
_cell_angle_alpha 88.71128
_cell_angle_beta  89.89749
_cell_angle_gamma 90.29514

_symmetry_space_group_name_	'P 1'
_symmetry_space_group_name_H-M	'P 1'

loop_
_symmetry_equiv_pos_as_xyz
  x,y,z

loop_
_atom_site_label
_atom_site_type_symbol
_atom_site_fract_x
_atom_site_fract_y
_atom_site_fract_z
_atom_site_charge
C 	C 	0.12531 0.38302 0.50079 0.30000
C 	C 	0.88202 0.62403 0.49890 0.30600
C 	C 	0.38580 0.87303 0.50123 0.30800
C 	C 	0.38435 0.12599 0.49887 0.30600
C 	C 	0.84631 0.22608 0.58600 -0.07400
C 	C 	0.80117 0.27691 0.35154 -0.06800
C 	C 	0.83144 0.76119 0.37494 -0.07900
C 	C 	0.82597 0.75004 0.62997 -0.07400
C 	C 	0.33758 0.73176 0.62154 -0.07900
C 	C 	0.33059 0.74542 0.36999 -0.07500
C 	C 	0.33583 0.26643 0.37798 -0.07800
C 	C 	0.12585 0.61634 0.49921 0.30100
C 	C 	0.32827 0.25304 0.63065 -0.07500
C 	C 	0.25552 0.67194 0.63339 -0.07500
C 	C 	0.26709 0.66661 0.37944 -0.07800
C 	C 	0.25560 0.32781 0.36825 -0.07600
C 	C 	0.26475 0.33132 0.62252 -0.07800
C 	C 	0.76812 0.16162 0.60243 -0.07800
C 	C 	0.74289 0.19532 0.35413 -0.07900
C 	C 	0.75284 0.82487 0.36767 -0.07300
C 	C 	0.76312 0.82853 0.62201 -0.07600
C 	C 	0.72807 0.33925 0.56226 -0.05300
C 	C 	0.62445 0.88202 0.50087 0.30400
C 	C 	0.72422 0.65642 0.48775 -0.05300
C 	C 	0.23017 0.83882 0.51482 -0.05100
C 	C 	0.22787 0.15953 0.48535 -0.05200
C 	C 	0.81525 0.30751 0.50166 -0.02400
C 	C 	0.81713 0.69539 0.49738 -0.01800
C 	C 	0.32249 0.79997 0.50262 -0.01600
C 	C 	0.32049 0.19855 0.49757 -0.01400
C 	C 	0.19936 0.68017 0.49842 -0.00800
C 	C 	0.19824 0.31873 0.50197 -0.00600
C 	C 	0.69430 0.18622 0.49613 -0.01300
C 	C 	0.62341 0.11937 0.49857 0.30800
C 	C 	0.69612 0.81645 0.50199 -0.01300
C 	C 	0.16066 0.77150 0.48360 -0.06200
C 	C 	0.15862 0.22712 0.51476 -0.06400
C 	C 	0.65492 0.27498 0.53043 -0.05600
C 	C 	0.65547 0.72508 0.51529 -0.05700
C 	C 	0.02616 0.41705 0.08278 0.10000
C 	C 	0.03770 0.42180 0.92295 -0.02900
C 	C 	0.04766 0.57271 0.91703 -0.00100
C 	C 	0.05524 0.56702 0.07714 0.00400
C 	C 	0.54544 0.92642 0.08312 -0.04300
C 	C 	0.91165 0.51576 0.07950 -0.04700
C 	C 	0.54119 0.92413 0.92292 -0.05900
C 	C 	0.54458 0.07529 0.91659 -0.04100
C 	C 	0.53918 0.07743 0.07704 -0.04000
C 	C 	0.89418 0.24286 0.71868 0.28800
C 	C 	0.77144 0.34666 0.24859 0.29100
C 	C 	0.84965 0.72227 0.23752 0.30000
C 	C 	0.81685 0.69879 0.76330 0.29500
C 	C 	0.36649 0.76535 0.75735 0.30000
C 	C 	0.32280 0.79525 0.23644 0.29600
C 	C 	0.36100 0.23227 0.24052 0.29800
C 	C 	0.90989 0.50337 0.91989 -0.05700
C 	C 	0.32028 0.20253 0.76388 0.29500
C 	C 	0.20810 0.68473 0.76663 0.29200
C 	C 	0.23190 0.64607 0.24096 0.28900
C 	C 	0.20759 0.31782 0.23501 0.29200
C 	C 	0.22725 0.34993 0.76080 0.28800
C 	C 	0.73776 0.15293 0.74910 0.29500
C 	C 	0.69199 0.19329 0.22451 0.28900
C 	C 	0.70386 0.81726 0.23452 0.28900
C 	C 	0.72637 0.84654 0.76093 0.28700
C 	C 	0.41015 0.99436 0.08052 -0.08500
C 	C 	0.41014 0.00403 0.91999 -0.00200
C 	C 	0.88062 0.37764 0.50104 0.31700
H 	H 	0.89536 0.19352 0.52165 0.05000
H 	H 	0.30680 0.60961 0.40924 0.06100
H 	H 	0.28155 0.39473 0.36466 0.06700
H 	H 	0.30478 0.38901 0.59533 0.06100
H 	H 	0.79283 0.09711 0.57524 0.06200
H 	H 	0.78678 0.13882 0.34826 0.06200
H 	H 	0.78044 0.89111 0.36469 0.05600
H 	H 	0.80339 0.88607 0.59489 0.05500
H 	H 	0.73432 0.34601 0.67392 0.08100
H 	H 	0.71037 0.40437 0.52506 0.06600
H 	H 	0.71298 0.62989 0.38561 0.07500
H 	H 	0.86575 0.25628 0.31270 0.05800
H 	H 	0.71512 0.60070 0.55857 0.06700
H 	H 	0.22010 0.86246 0.61950 0.07600
H 	H 	0.22171 0.89567 0.44601 0.06800
H 	H 	0.21792 0.13485 0.38141 0.08200
H 	H 	0.21865 0.10306 0.55481 0.07500
H 	H 	0.10309 0.78042 0.54958 0.08300
H 	H 	0.13585 0.78284 0.37898 0.09100
H 	H 	0.10181 0.21855 0.44721 0.08800
H 	H 	0.13235 0.21531 0.61846 0.10300
H 	H 	0.60788 0.27075 0.61604 0.06800
H 	H 	0.89039 0.79984 0.39858 0.05000
H 	H 	0.61680 0.30011 0.44266 0.07300
H 	H 	0.59901 0.71664 0.44710 0.06800
H 	H 	0.62806 0.71397 0.61845 0.08100
H 	H 	0.97921 0.36542 0.11227 -0.02800
H 	H 	0.01115 0.36379 0.87495 0.07900
H 	H 	0.01730 0.63406 0.88421 0.07600
H 	H 	0.03800 0.62961 0.12062 0.07300
H 	H 	0.51900 0.86609 0.12839 0.05500
H 	H 	0.50857 0.86502 0.88980 0.06300
H 	H 	0.51856 0.13556 0.87066 0.05200
H 	H 	0.89323 0.77685 0.63076 0.05200
H 	H 	0.50315 0.13451 0.10877 0.05900
H 	H 	0.08751 0.40031 0.12912 0.02900
H 	H 	0.10741 0.42426 0.90191 0.06300
H 	H 	0.11292 0.57021 0.87360 0.05200
H 	H 	0.12266 0.55123 0.10354 0.05700
H 	H 	0.61340 0.93281 0.11371 0.05600
H 	H 	0.60754 0.92455 0.88474 0.06100
H 	H 	0.61320 0.07210 0.88674 0.06400
H 	H 	0.60481 0.08006 0.11694 0.05800
H 	H 	0.86252 0.47564 0.13162 0.05100
H 	H 	0.39238 0.68996 0.59048 0.06200
H 	H 	0.87328 0.44403 0.89655 0.05200
H 	H 	0.87395 0.55522 0.87000 0.04700
H 	H 	0.89428 0.58184 0.09885 0.05100
H 	H 	0.38135 0.93241 0.10835 0.06100
H 	H 	0.36760 0.95735 0.87213 0.02900
H 	H 	0.38104 0.06573 0.89258 0.04500
H 	H 	0.36756 0.04102 0.12802 0.06500
H 	H 	0.88815 0.28347 0.91206 0.15900
H 	H 	0.70689 0.45661 0.20864 0.16800
H 	H 	0.79008 0.67165 0.07585 0.17000
H 	H 	0.39765 0.71872 0.36861 0.06600
H 	H 	0.74304 0.61745 0.87994 0.15600
H 	H 	0.33114 0.82690 0.92484 0.17200
H 	H 	0.24888 0.87202 0.11495 0.16300
H 	H 	0.32101 0.16929 0.07639 0.17300
H 	H 	0.24717 0.12262 0.88329 0.16500
H 	H 	0.11823 0.74972 0.87280 0.17000
H 	H 	0.16967 0.69613 0.07787 0.17500
H 	H 	0.11895 0.25146 0.12621 0.17100
H 	H 	0.16534 0.29657 0.92251 0.16900
H 	H 	0.67438 0.20673 0.90626 0.17900
H 	H 	0.39240 0.30694 0.40718 0.06400
H 	H 	0.59760 0.24906 0.11235 0.17000
H 	H 	0.61360 0.75254 0.12727 0.16500
H 	H 	0.66136 0.79428 0.92080 0.16700
H 	H 	0.39532 0.28041 0.63185 0.06300
H 	H 	0.27925 0.60452 0.63953 0.06600
N 	N 	0.99876 0.50000 0.13861 -0.27200
N 	N 	0.99876 0.50000 0.86139 -0.25800
N 	N 	0.49876 0.00000 0.13861 -0.19200
N 	N 	0.49876 0.00000 0.86139 -0.19900
O 	O 	0.09253 0.40744 0.61604 -0.38400
O 	O 	0.90733 0.40742 0.38396 -0.43800
O 	O 	0.90733 0.59258 0.38396 -0.42800
O 	O 	0.90733 0.59258 0.61604 -0.43300
O 	O 	0.40733 0.90742 0.61604 -0.41900
O 	O 	0.40733 0.90742 0.38396 -0.42300
O 	O 	0.40733 0.09258 0.38396 -0.40800
O 	O 	0.40733 0.09258 0.61604 -0.41100
O 	O 	0.96861 0.21753 0.73328 -0.26800
O 	O 	0.85318 0.28513 0.82482 -0.29000
O 	O 	0.78972 0.33877 0.12818 -0.23800
O 	O 	0.09253 0.40744 0.38396 -0.38900
O 	O 	0.72265 0.41711 0.28808 -0.30300
O 	O 	0.91568 0.74169 0.17463 -0.25400
O 	O 	0.78657 0.67031 0.17848 -0.30600
O 	O 	0.86846 0.71153 0.85516 -0.25600
O 	O 	0.74700 0.64229 0.78411 -0.29900
O 	O 	0.43338 0.73880 0.80969 -0.22900
O 	O 	0.31275 0.82087 0.82721 -0.30300
O 	O 	0.37444 0.78031 0.14560 -0.24000
O 	O 	0.25396 0.85186 0.21334 -0.29600
O 	O 	0.42530 0.26070 0.18184 -0.22500
O 	O 	0.09253 0.59256 0.38396 -0.38900
O 	O 	0.30580 0.17528 0.17553 -0.30000
O 	O 	0.37109 0.21811 0.85556 -0.24200
O 	O 	0.25215 0.14413 0.78554 -0.29100
O 	O 	0.23843 0.65155 0.86999 -0.22700
O 	O 	0.13754 0.74016 0.77577 -0.29300
O 	O 	0.26335 0.58725 0.17735 -0.21600
O 	O 	0.17201 0.70145 0.17982 -0.29100
O 	O 	0.23256 0.35937 0.13511 -0.22200
O 	O 	0.14219 0.25609 0.22198 -0.29100
O 	O 	0.25469 0.41084 0.82451 -0.21900
O 	O 	0.09253 0.59256 0.61604 -0.39300
O 	O 	0.16785 0.29242 0.82030 -0.28400
O 	O 	0.76262 0.09223 0.81935 -0.21400
O 	O 	0.68714 0.21677 0.80655 -0.30000
O 	O 	0.72659 0.16238 0.12489 -0.23300
O 	O 	0.61525 0.24002 0.21094 -0.29300
O 	O 	0.73535 0.85075 0.13179 -0.23300
O 	O 	0.63199 0.76281 0.22437 -0.29900
O 	O 	0.75719 0.90450 0.82764 -0.22200
O 	O 	0.66480 0.79048 0.81854 -0.29300
O 	O 	0.59253 0.90744 0.61604 -0.41700
O 	O 	0.59253 0.90744 0.38396 -0.42300
O 	O 	0.59253 0.09256 0.38396 -0.41700
O 	O 	0.59253 0.09256 0.61604 -0.41600
O 	O 	0.90733 0.40742 0.61604 -0.43400
Zn	Zn	0.99989 0.50000 0.65496 1.18800
Zn	Zn	0.99989 0.50000 0.34504 1.18800
Zn	Zn	0.49989 1.00000 0.65496 1.20300
Zn	Zn	0.49989 0.00000 0.34504 1.21300
