data_crystal

_cell_length_a 7.69972
_cell_length_b 8.56629
_cell_length_c 10.92531
_cell_angle_alpha 91.25480
_cell_angle_beta  86.39194
_cell_angle_gamma 93.72998

_symmetry_space_group_name_	'P 1'
_symmetry_space_group_name_H-M	'P 1'

loop_
_symmetry_equiv_pos_as_xyz
  x,y,z

loop_
_atom_site_label
_atom_site_type_symbol
_atom_site_fract_x
_atom_site_fract_y
_atom_site_fract_z
_atom_site_charge
C 	C 	0.54604 0.79501 0.49673 0.40100
C 	C 	0.95950 0.40573 0.05643 0.38400
C 	C 	0.02916 0.56366 0.07096 -0.35500
C 	C 	0.97086 0.43643 0.92901 -0.35500
C 	C 	0.18858 0.58914 0.13212 0.25300
C 	C 	0.81144 0.41094 0.86786 0.25300
C 	C 	0.34538 0.54053 0.06977 -0.04900
C 	C 	0.65463 0.45953 0.93022 -0.04900
C 	C 	0.35590 0.55275 0.94269 0.13000
C 	C 	0.64412 0.44731 0.05730 0.13000
C 	C 	0.49255 0.49213 0.12765 -0.10000
C 	C 	0.45396 0.20499 0.50327 0.40100
C 	C 	0.50746 0.50791 0.87235 -0.10000
C 	C 	0.57050 0.95835 0.49486 -0.11400
C 	C 	0.42950 0.04165 0.50514 -0.11400
C 	C 	0.50365 0.50378 0.73997 0.37400
C 	C 	0.49635 0.49623 0.26003 0.37400
C 	C 	0.21345 0.62069 0.89173 -0.21900
C 	C 	0.78658 0.37938 0.10826 -0.21900
C 	C 	0.04053 0.59436 0.94354 0.38400
H 	H 	0.06562 0.36260 0.88229 0.13000
H 	H 	0.01588 0.18898 0.06274 0.16200
H 	H 	0.08641 0.71885 0.26339 0.15200
H 	H 	0.91354 0.28140 0.73647 0.15300
H 	H 	0.93439 0.63749 0.11767 0.13000
H 	H 	0.23510 0.69945 0.81519 0.10800
H 	H 	0.76494 0.30061 0.18479 0.10800
H 	H 	0.70360 0.00953 0.48509 0.09300
H 	H 	0.29640 0.99047 0.51491 0.09300
H 	H 	0.01489 0.38499 0.40546 0.08000
H 	H 	0.98511 0.61501 0.59454 0.08000
H 	H 	0.98419 0.81112 0.93724 0.16200
N 	N 	0.95033 0.45795 0.46625 -0.23400
N 	N 	0.04967 0.54205 0.53375 -0.23400
O 	O 	0.38925 0.73857 0.50828 -0.46400
O 	O 	0.06566 0.29223 0.09187 -0.33800
O 	O 	0.20281 0.70495 0.22199 -0.29400
O 	O 	0.79722 0.29507 0.77804 -0.29500
O 	O 	0.61075 0.26143 0.49172 -0.46400
O 	O 	0.67839 0.71163 0.48665 -0.46600
O 	O 	0.32161 0.28837 0.51335 -0.46600
O 	O 	0.35543 0.51348 0.69404 -0.44200
O 	O 	0.64457 0.48652 0.30596 -0.44200
O 	O 	0.64457 0.48654 0.67241 -0.41900
O 	O 	0.35543 0.51346 0.32759 -0.41900
O 	O 	0.93439 0.70786 0.90810 -0.33800
Zn	Zn	0.30694 0.51799 0.51444 1.22700
Zn	Zn	0.69306 0.48201 0.48556 1.22700
