data_crystal

_audit_creation_method 'AiiDA-DDEC plugin'

_cell_length_a        14.88918
_cell_length_b        24.78355
_cell_length_c        11.21945

_cell_angle_alpha     90.00000
_cell_angle_beta     97.53518
_cell_angle_gamma     90.00000

_symmetry_space_group_name_Hall 'P 1'
_symmetry_space_group_name_H-M  'P 1'

loop_
_symmetry_equiv_pos_as_xyz
 'x,y,z'

loop_
_atom_site_label
_atom_site_type_symbol
_atom_site_fract_x
_atom_site_fract_y
_atom_site_fract_z
_atom_site_charge
Cu         Cu      0.01978   0.11365   0.78336   0.85725
Cu         Cu      0.68644   0.88635   0.28336   0.85713
Cu         Cu      0.18600   0.38652   0.28354   0.85640
Cu         Cu      0.18600   0.61348   0.78354   0.85630
Cu         Cu      0.35311   0.11365   0.78336   0.85726
Cu         Cu      0.01978   0.88635   0.28336   0.85715
Cu         Cu      0.51934   0.38652   0.28354   0.85647
Cu         Cu      0.51933   0.61348   0.78354   0.85628
Cu         Cu      0.68644   0.11365   0.78336   0.85725
Cu         Cu      0.35311   0.88635   0.28336   0.85717
Cu         Cu      0.85267   0.38652   0.28354   0.85644
Cu         Cu      0.85267   0.61348   0.78354   0.85636
H          H       0.98154   0.16241   0.01145   0.10189
H          H       0.03251   0.24392   0.13706   0.12715
H          H       0.22036   0.27820   0.88657   0.13148
H          H       0.16466   0.19417   0.77300   0.10397
H          H       0.85439   0.10427   0.60664   0.11127
H          H       0.78202   0.03637   0.46097   0.13518
H          H       0.00597   0.92974   0.57256   0.12439
H          H       0.06653   0.00059   0.72232   0.09912
H          H       0.98154   0.83759   0.51145   0.10182
H          H       0.03251   0.75608   0.63706   0.12726
H          H       0.22036   0.72179   0.38656   0.13164
H          H       0.16466   0.80583   0.27300   0.10398
H          H       0.85439   0.89573   0.10664   0.11131
H          H       0.78202   0.96362   0.96097   0.13529
H          H       0.00597   0.07026   0.07256   0.12430
H          H       0.06653  -0.00059   0.22232   0.09914
H          H       0.14819   0.66254   0.01243   0.10112
H          H       0.19919   0.74445   0.13709   0.12592
H          H       0.38681   0.77815   0.88630   0.13085
H          H       0.33097   0.69406   0.77315   0.10393
H          H       0.02070   0.60471   0.60591   0.11129
H          H       0.94771   0.53659   0.46090   0.13489
H          H       0.17117   0.42973   0.57242   0.12431
H          H       0.23241   0.50067   0.72158   0.10005
H          H       0.14819   0.33746   0.51243   0.10105
H          H       0.19918   0.25554   0.63709   0.12601
H          H       0.38682   0.22184   0.38630   0.13104
H          H       0.33097   0.30594   0.27315   0.10394
H          H       0.02070   0.39529   0.10591   0.11136
H          H       0.94771   0.46341   0.96090   0.13486
H          H       0.17117   0.57027   0.07242   0.12428
H          H       0.23241   0.49932   0.22157   0.10006
H          H       0.31487   0.16241   0.01144   0.10188
H          H       0.36584   0.24392   0.13706   0.12713
H          H       0.55369   0.27820   0.88657   0.13148
H          H       0.49800   0.19417   0.77300   0.10398
H          H       0.18772   0.10427   0.60665   0.11128
H          H       0.11536   0.03637   0.46097   0.13515
H          H       0.33930   0.92974   0.57256   0.12441
H          H       0.39986   0.00059   0.72232   0.09912
H          H       0.31487   0.83759   0.51145   0.10183
H          H       0.36584   0.75608   0.63706   0.12724
H          H       0.55369   0.72180   0.38656   0.13163
H          H       0.49800   0.80583   0.27300   0.10396
H          H       0.18773   0.89573   0.10664   0.11130
H          H       0.11535   0.96362   0.96097   0.13527
H          H       0.33930   0.07026   0.07256   0.12432
H          H       0.39986  -0.00059   0.22232   0.09914
H          H       0.48152   0.66254   0.01243   0.10116
H          H       0.53252   0.74445   0.13709   0.12591
H          H       0.72015   0.77815   0.88630   0.13082
H          H       0.66430   0.69406   0.77315   0.10396
H          H       0.35403   0.60471   0.60591   0.11129
H          H       0.28104   0.53659   0.46090   0.13490
H          H       0.50450   0.42973   0.57242   0.12433
H          H       0.56574   0.50067   0.72158   0.10004
H          H       0.48152   0.33746   0.51243   0.10109
H          H       0.53252   0.25555   0.63709   0.12602
H          H       0.72015   0.22185   0.38630   0.13093
H          H       0.66430   0.30594   0.27315   0.10394
H          H       0.35403   0.39529   0.10591   0.11136
H          H       0.28104   0.46341   0.96091   0.13485
H          H       0.50450   0.57026   0.07242   0.12429
H          H       0.56574   0.49932   0.22158   0.10007
H          H       0.64820   0.16241   0.01145   0.10188
H          H       0.69917   0.24392   0.13706   0.12724
H          H       0.88703   0.27820   0.88657   0.13145
H          H       0.83133   0.19417   0.77301   0.10396
H          H       0.52106   0.10427   0.60664   0.11129
H          H       0.44869   0.03637   0.46097   0.13521
H          H       0.67263   0.92974   0.57256   0.12439
H          H       0.73319   0.00059   0.72232   0.09911
H          H       0.64820   0.83759   0.51145   0.10182
H          H       0.69917   0.75608   0.63706   0.12728
H          H       0.88703   0.72180   0.38657   0.13160
H          H       0.83133   0.80583   0.27301   0.10397
H          H       0.52106   0.89573   0.10664   0.11130
H          H       0.44869   0.96362   0.96097   0.13529
H          H       0.67263   0.07026   0.07256   0.12429
H          H       0.73319  -0.00059   0.22232   0.09913
H          H       0.81486   0.66254   0.01243   0.10115
H          H       0.86585   0.74445   0.13709   0.12591
H          H       0.05348   0.77815   0.88630   0.13084
H          H       0.99763   0.69406   0.77315   0.10392
H          H       0.68736   0.60471   0.60591   0.11131
H          H       0.61437   0.53659   0.46091   0.13493
H          H       0.83784   0.42973   0.57242   0.12431
H          H       0.89908   0.50067   0.72157   0.10003
H          H       0.81486   0.33746   0.51243   0.10108
H          H       0.86585   0.25555   0.63709   0.12603
H          H       0.05348   0.22184   0.38630   0.13103
H          H       0.99763   0.30594   0.27315   0.10394
H          H       0.68736   0.39529   0.10591   0.11137
H          H       0.61437   0.46341   0.96091   0.13490
H          H       0.83784   0.57026   0.07242   0.12428
H          H       0.89908   0.49932   0.22157   0.10006
C          C       0.03494   0.18896   0.98883   0.07662
C          C       0.06316   0.23421   0.05706  -0.14115
C          C       0.13056   0.26738   0.02061   0.02795
C          C       0.16717   0.25338   0.91606  -0.14536
C          C       0.13618   0.20737   0.85261   0.08728
C          C       0.16579   0.31627   0.09280   0.54107
C          C       0.88580   0.06514   0.59718   0.08581
C          C       0.84602   0.02710   0.51540  -0.13819
C          C       0.88863   0.97729   0.50476   0.01581
C          C       0.96991   0.96749   0.57930  -0.13631
C          C       0.00476   0.00681   0.66089   0.08248
C          C       0.84859   0.93454   0.41743   0.57467
C          C       0.03495   0.81104   0.48883   0.07660
C          C       0.06316   0.76578   0.55706  -0.14116
C          C       0.13056   0.73261   0.52061   0.02789
C          C       0.16717   0.74662   0.41606  -0.14539
C          C       0.13618   0.79263   0.35261   0.08733
C          C       0.16579   0.68373   0.59281   0.54107
C          C       0.88580   0.93485   0.09718   0.08591
C          C       0.84602   0.97290   0.01540  -0.13836
C          C       0.88863   0.02271   0.00476   0.01584
C          C       0.96991   0.03251   0.07930  -0.13639
C          C       0.00476   0.99319   0.16089   0.08236
C          C       0.84859   0.06546   0.91743   0.57474
C          C       0.20156   0.68903   0.98941   0.07624
C          C       0.22967   0.73448   0.05710  -0.13749
C          C       0.29707   0.76752   0.02030   0.02691
C          C       0.33357   0.75337   0.91579  -0.14568
C          C       0.30257   0.70724   0.85283   0.08743
C          C       0.33296   0.81629   0.09229   0.54127
C          C       0.05185   0.56549   0.59679   0.08529
C          C       0.01169   0.52742   0.51544  -0.13731
C          C       0.05395   0.47753   0.50493   0.01589
C          C       0.13528   0.46754   0.57919  -0.13556
C          C       0.17050   0.50690   0.66044   0.08049
C          C       0.01344   0.43526   0.41693   0.57333
C          C       0.20156   0.31097   0.48941   0.07612
C          C       0.22967   0.26551   0.55710  -0.13751
C          C       0.29707   0.23248   0.52030   0.02680
C          C       0.33357   0.24662   0.41579  -0.14566
C          C       0.30257   0.29275   0.35282   0.08746
C          C       0.33296   0.18371   0.59229   0.54134
C          C       0.05185   0.43450   0.09679   0.08535
C          C       0.01169   0.47258   0.01544  -0.13716
C          C       0.05395   0.52247   0.00493   0.01568
C          C       0.13528   0.53246   0.07919  -0.13564
C          C       0.17051   0.49310   0.16044   0.08047
C          C       0.01343   0.56474   0.91693   0.57350
C          C       0.36828   0.18896   0.98883   0.07661
C          C       0.39650   0.23421   0.05706  -0.14110
C          C       0.46390   0.26738   0.02061   0.02794
C          C       0.50051   0.25338   0.91606  -0.14536
C          C       0.46951   0.20737   0.85261   0.08720
C          C       0.49912   0.31627   0.09280   0.54112
C          C       0.21913   0.06514   0.59718   0.08579
C          C       0.17936   0.02709   0.51540  -0.13816
C          C       0.22196   0.97729   0.50476   0.01584
C          C       0.30324   0.96749   0.57930  -0.13633
C          C       0.33809   0.00681   0.66089   0.08248
C          C       0.18192   0.93454   0.41743   0.57466
C          C       0.36828   0.81104   0.48883   0.07654
C          C       0.39649   0.76578   0.55706  -0.14110
C          C       0.46389   0.73261   0.52061   0.02787
C          C       0.50051   0.74662   0.41606  -0.14538
C          C       0.46951   0.79263   0.35261   0.08737
C          C       0.49912   0.68373   0.59281   0.54102
C          C       0.21913   0.93486   0.09718   0.08589
C          C       0.17936   0.97290   0.01540  -0.13835
C          C       0.22196   0.02271   0.00476   0.01587
C          C       0.30324   0.03251   0.07930  -0.13644
C          C       0.33809   0.99319   0.16089   0.08238
C          C       0.18192   0.06546   0.91743   0.57473
C          C       0.53489   0.68902   0.98941   0.07622
C          C       0.56300   0.73448   0.05710  -0.13748
C          C       0.63041   0.76752   0.02030   0.02691
C          C       0.66690   0.75337   0.91579  -0.14560
C          C       0.63590   0.70724   0.85282   0.08739
C          C       0.66629   0.81629   0.09229   0.54122
C          C       0.38519   0.56549   0.59679   0.08528
C          C       0.34503   0.52742   0.51544  -0.13727
C          C       0.38728   0.47753   0.50493   0.01585
C          C       0.46861   0.46754   0.57919  -0.13558
C          C       0.50384   0.50690   0.66044   0.08050
C          C       0.34677   0.43526   0.41693   0.57335
C          C       0.53489   0.31097   0.48941   0.07608
C          C       0.56300   0.26552   0.55710  -0.13750
C          C       0.63040   0.23248   0.52030   0.02688
C          C       0.66690   0.24663   0.41579  -0.14559
C          C       0.63591   0.29276   0.35282   0.08752
C          C       0.66629   0.18371   0.59229   0.54120
C          C       0.38519   0.43450   0.09679   0.08532
C          C       0.34503   0.47258   0.01544  -0.13710
C          C       0.38728   0.52247   0.00493   0.01565
C          C       0.46861   0.53246   0.07919  -0.13562
C          C       0.50384   0.49310   0.16044   0.08043
C          C       0.34677   0.56474   0.91693   0.57353
C          C       0.70161   0.18896   0.98883   0.07661
C          C       0.72983   0.23421   0.05706  -0.14122
C          C       0.79723   0.26738   0.02061   0.02799
C          C       0.83384   0.25338   0.91606  -0.14538
C          C       0.80285   0.20737   0.85262   0.08727
C          C       0.83245   0.31627   0.09281   0.54105
C          C       0.55247   0.06514   0.59718   0.08575
C          C       0.51269   0.02710   0.51540  -0.13819
C          C       0.55529   0.97729   0.50476   0.01581
C          C       0.63658   0.96749   0.57930  -0.13629
C          C       0.67142   0.00681   0.66089   0.08250
C          C       0.51526   0.93454   0.41743   0.57464
C          C       0.70161   0.81104   0.48883   0.07659
C          C       0.72983   0.76578   0.55706  -0.14119
C          C       0.79723   0.73261   0.52061   0.02793
C          C       0.83384   0.74662   0.41606  -0.14540
C          C       0.80285   0.79263   0.35262   0.08732
C          C       0.83245   0.68373   0.59281   0.54103
C          C       0.55247   0.93485   0.09717   0.08586
C          C       0.51269   0.97290   0.01540  -0.13831
C          C       0.55530   0.02271   0.00476   0.01582
C          C       0.63658   0.03251   0.07930  -0.13639
C          C       0.67142   0.99319   0.16089   0.08242
C          C       0.51525   0.06546   0.91743   0.57472
C          C       0.86823   0.68903   0.98941   0.07620
C          C       0.89634   0.73448   0.05710  -0.13745
C          C       0.96374   0.76752   0.02030   0.02691
C          C       0.00024   0.75337   0.91579  -0.14568
C          C       0.96924   0.70724   0.85283   0.08742
C          C      -0.00038   0.81629   0.09229   0.54127
C          C       0.71852   0.56549   0.59679   0.08527
C          C       0.67836   0.52742   0.51544  -0.13730
C          C       0.72061   0.47753   0.50493   0.01586
C          C       0.80194   0.46754   0.57919  -0.13558
C          C       0.83717   0.50690   0.66044   0.08053
C          C       0.68010   0.43526   0.41693   0.57335
C          C       0.86823   0.31097   0.48941   0.07613
C          C       0.89634   0.26552   0.55710  -0.13752
C          C       0.96374   0.23248   0.52030   0.02683
C          C       0.00024   0.24662   0.41579  -0.14568
C          C       0.96924   0.29275   0.35282   0.08746
C          C      -0.00038   0.18371   0.59229   0.54127
C          C       0.71852   0.43450   0.09679   0.08531
C          C       0.67836   0.47258   0.01544  -0.13715
C          C       0.72062   0.52247   0.00493   0.01566
C          C       0.80194   0.53246   0.07919  -0.13561
C          C       0.83717   0.49310   0.16044   0.08045
C          C       0.68010   0.56474   0.91693   0.57354
N          N       0.07087   0.17579   0.88860  -0.22059
N          N       0.96424   0.05517   0.66899  -0.23889
N          N       0.07087   0.82421   0.38860  -0.22074
N          N       0.96424   0.94483   0.16899  -0.23868
N          N       0.23753   0.67558   0.88935  -0.22052
N          N       0.13030   0.55537   0.66842  -0.23598
N          N       0.23754   0.32442   0.38935  -0.22064
N          N       0.13030   0.44463   0.16842  -0.23598
N          N       0.40420   0.17579   0.88860  -0.22053
N          N       0.29757   0.05517   0.66899  -0.23886
N          N       0.40420   0.82421   0.38860  -0.22075
N          N       0.29758   0.94483   0.16899  -0.23867
N          N       0.57087   0.67558   0.88935  -0.22056
N          N       0.46363   0.55537   0.66842  -0.23597
N          N       0.57087   0.32442   0.38935  -0.22072
N          N       0.46363   0.44463   0.16842  -0.23599
N          N       0.73753   0.17579   0.88860  -0.22054
N          N       0.63091   0.05517   0.66899  -0.23886
N          N       0.73754   0.82421   0.38860  -0.22070
N          N       0.63091   0.94483   0.16899  -0.23867
N          N       0.90420   0.67558   0.88935  -0.22051
N          N       0.79696   0.55537   0.66842  -0.23601
N          N       0.90420   0.32442   0.38935  -0.22067
N          N       0.79696   0.44463   0.16842  -0.23598
O          O       0.12202   0.32793   0.18205  -0.55236
O          O       0.23319   0.34103   0.06536  -0.55209
O          O       0.76409   0.94150   0.37766  -0.57805
O          O       0.89766   0.89624   0.39181  -0.58118
O          O       0.95526   0.17122   0.68043  -0.55208
O          O       0.09742   0.05850   0.87766  -0.57802
O          O       0.89765   0.10376   0.89181  -0.58135
O          O       0.12202   0.67207   0.68205  -0.55224
O          O       0.23319   0.65896   0.56536  -0.55214
O          O       0.95526   0.82878   0.18043  -0.55213
O          O       0.40156   0.84005   0.06590  -0.55141
O          O       0.92882   0.44249   0.37777  -0.57658
O          O       0.06220   0.39715   0.38962  -0.58206
O          O       0.26215   0.55751   0.87777  -0.57639
O          O       0.06219   0.60285   0.88962  -0.58235
O          O       0.40156   0.15995   0.56590  -0.55149
O          O       0.45535   0.32793   0.18204  -0.55236
O          O       0.56652   0.34103   0.06536  -0.55213
O          O       0.09742   0.94150   0.37766  -0.57812
O          O       0.23099   0.89624   0.39181  -0.58113
O          O       0.28859   0.17122   0.68043  -0.55211
O          O       0.43076   0.05850   0.87766  -0.57800
O          O       0.23099   0.10376   0.89181  -0.58133
O          O       0.45535   0.67207   0.68204  -0.55219
O          O       0.56652   0.65896   0.56537  -0.55211
O          O       0.28860   0.82878   0.18043  -0.55215
O          O       0.73489   0.84005   0.06590  -0.55142
O          O       0.26216   0.44249   0.37777  -0.57659
O          O       0.39553   0.39715   0.38962  -0.58209
O          O       0.59549   0.55751   0.87777  -0.57639
O          O       0.39553   0.60285   0.88962  -0.58239
O          O       0.73489   0.15995   0.56590  -0.55142
O          O       0.78868   0.32793   0.18205  -0.55236
O          O       0.89985   0.34103   0.06537  -0.55210
O          O       0.43076   0.94150   0.37766  -0.57806
O          O       0.56432   0.89624   0.39181  -0.58117
O          O       0.62193   0.17122   0.68043  -0.55206
O          O       0.76409   0.05850   0.87766  -0.57801
O          O       0.56432   0.10376   0.89181  -0.58134
O          O       0.78868   0.67207   0.68205  -0.55224
O          O       0.89985   0.65896   0.56537  -0.55210
O          O       0.62193   0.82878   0.18043  -0.55213
O          O       0.06823   0.84005   0.06590  -0.55145
O          O       0.59549   0.44249   0.37777  -0.57656
O          O       0.72886   0.39715   0.38962  -0.58212
O          O       0.92882   0.55751   0.87777  -0.57642
O          O       0.72886   0.60285   0.88962  -0.58240
O          O       0.06823   0.15995   0.56590  -0.55145
