data_crystal
 
_cell_length_a    14.76835
_cell_length_b    14.77264
_cell_length_c    14.78123
_cell_angle_alpha 90.15213
_cell_angle_beta  119.93379
_cell_angle_gamma 119.79997
 
_symmetry_space_group_name_Hall 'P 1'
_symmetry_space_group_name_H-M  'P 1'
 
loop_
_symmetry_equiv_pos_as_xyz
 'x,y,z' 
 
loop_
_atom_site_label
_atom_site_type_symbol
_atom_site_fract_x
_atom_site_fract_y
_atom_site_fract_z
_atom_site_charge
Zr	Zr	0.0129	0.13248	0.12388	2.371741
Zr	Zr	0.25391	0.13485	0.12525	2.387932
Zr	Zr	0.01122	0.12925	0.88435	2.375614
Zr	Zr	0.77458	0.89224	0.88743	2.381367
Zr	Zr	0.0162	0.89556	0.12843	2.38367
Zr	Zr	0.01423	0.89238	0.88872	2.375707
H	H	0.56571	0.42313	0.41901	0.119244
H	H	0.0597	0.44813	0.16413	0.112682
H	H	0.73545	0.12284	0.56844	0.117737
H	H	0.92938	0.56093	0.8305	0.130673
H	H	0.4616	0.58575	0.61457	0.130083
H	H	0.55815	0.19133	0.09527	0.130649
H	H	0.07246	0.17824	0.62526	0.116451
H	H	0.46446	0.85466	0.89264	0.117444
H	H	0.29215	0.92608	0.46192	0.134579
H	H	0.46125	0.60451	0.86285	0.130204
H	H	0.56267	0.40946	0.12932	0.116396
H	H	0.98838	0.8602	0.40183	0.131028
H	H	0.19906	0.29485	0.09762	0.426593
H	H	0.82507	0.91626	0.72389	0.425974
H	H	0.82603	0.92057	0.10107	0.426997
H	H	0.20454	0.92077	0.10247	0.424498
H	H	0.07328	0.18664	0.45604	0.113937
H	H	0.74002	0.57906	0.13689	0.118775
H	H	0.57236	0.13088	0.40025	0.12164
H	H	0.06159	0.61909	0.17143	0.122491
H	H	0.74188	0.59215	0.58966	0.114931
H	H	0.28977	0.85023	0.888	0.120987
H	H	0.24438	0.48444	0.79922	0.305379
H	H	0.85231	0.38273	0.72731	0.308247
H	H	0.93998	0.75961	0.51461	0.304947
H	H	0.76075	0.29262	0.11904	0.308322
H	H	0.2426	0.44989	0.47739	0.310491
H	H	0.3679	0.89892	0.63934	0.310175
H	H	0.89928	0.30187	0.79129	0.313776
H	H	0.51153	0.91283	0.7175	0.308497
H	H	0.97473	0.8229	0.63773	0.309214
H	H	0.82408	0.22708	0.10254	0.309141
H	H	0.18885	0.34542	0.36912	0.319256
H	H	0.18872	0.36938	0.83927	0.314529
C	C	0.31721	0.31407	0.31543	0.642171
C	C	0.31489	0.31393	0.99772	0.638093
C	C	0.99907	0.31071	0.99853	0.638519
C	C	0.70825	0.01788	0.70597	0.637359
C	C	0.02307	0.02094	0.31502	0.636566
C	C	0.00492	0.70451	0.005	0.638264
C	C	0.71147	0.70261	0.70838	0.636494
C	C	0.71173	0.70511	0.00417	0.636874
C	C	0.31619	0.01782	0.99867	0.638869
C	C	0.02276	0.01401	0.70572	0.638507
C	C	0.70673	0.01824	0.99755	0.639885
C	C	0.32129	0.02379	0.3173	0.63867
C	C	0.41488	0.40891	0.42003	-0.170552
C	C	0.41251	0.41091	0.99267	-0.167483
C	C	0.9926	0.40745	0.9939	-0.172457
C	C	0.60742	0.02161	0.61099	-0.168365
C	C	0.02829	0.02203	0.41854	-0.011942
C	C	0.99572	0.59899	0.00053	-0.008131
C	C	0.61015	0.59874	0.61048	-0.011597
C	C	0.60938	0.60164	1.00016	-0.010733
C	C	0.41589	0.02126	0.99276	-0.00958
C	C	0.02909	0.015	0.60899	-0.167344
C	C	0.60877	0.02475	0.9948	-0.172228
C	C	0.42263	0.02789	0.42202	-0.010482
C	C	0.54483	0.45968	0.4634	-0.074827
C	C	0.38106	0.46546	0.91435	0.296939
C	C	0.02959	0.47321	0.09126	-0.081326
C	C	0.63828	0.08161	0.5449	-0.085949
C	C	0.05358	0.11389	0.48136	-0.139519
C	C	0.95631	0.53445	0.90276	-0.219578
C	C	0.48327	0.54904	0.57116	-0.221446
C	C	0.64039	0.54675	0.07613	-0.14851
C	C	0.53845	0.11844	0.04985	-0.218806
C	C	0.0535	0.10894	0.57492	-0.071189
C	C	0.63761	0.12382	0.05157	0.299881
C	C	0.54873	0.0862	0.45191	-0.148638
C	C	0.48276	0.92817	0.9352	-0.086918
C	C	0.39026	0.97019	0.48707	-0.222143
C	C	0.00672	0.92303	0.5468	0.295384
C	C	0.03108	0.5676	0.09592	-0.149254
C	C	0.64216	0.55286	0.5572	-0.158221
C	C	0.48238	0.56097	0.92096	-0.223963
C	C	0.38278	0.45308	0.47653	0.302139
C	C	0.54231	0.45318	0.07125	-0.078225
C	C	0.48089	0.96613	0.58336	0.297882
C	C	0.00639	0.92936	0.45146	-0.229321
C	C	0.38623	0.92506	0.93261	-0.149445
C	C	0.9524	0.43701	0.89598	0.295687
N	N	0.91336	0.37706	0.79692	-0.616918
N	N	0.44282	0.90757	0.6441	-0.611343
N	N	0.26009	0.40547	0.44463	-0.6088
N	N	0.98746	0.82985	0.57583	-0.610554
N	N	0.75668	0.2225	0.10913	-0.609411
N	N	0.25771	0.42851	0.83209	-0.608378
O	O	0.14618	0.21457	0.07121	-1.057466
O	O	0.87808	0.9434	0.80423	-1.058232
O	O	0.87946	0.94669	0.07413	-1.057062
O	O	0.15048	0.94721	0.07549	-1.054683
O	O	0.11262	0.06181	0.95619	-1.159975
O	O	0.91315	0.06124	0.95528	-1.161594
O	O	0.1139	0.06429	0.15501	-1.159542
O	O	0.91548	0.86382	0.95864	-1.16186
O	O	0.1986	0.27447	0.27127	-0.632848
O	O	0.35272	0.27567	0.07608	-0.625506
O	O	0.99845	0.2684	0.92174	-0.62791
O	O	0.67359	0.94133	0.74753	-0.624783
O	O	0.0199	0.94231	0.27328	-0.627047
O	O	0.01334	0.74843	0.08611	-0.620481
O	O	0.82777	0.74362	0.74538	-0.622954
O	O	0.67481	0.74659	0.92868	-0.628783
O	O	0.20003	0.93623	0.92694	-0.622481
O	O	0.01639	0.93436	0.74468	-0.626347
O	O	0.66894	0.93598	0.92524	-0.634776
O	O	0.20509	0.9461	0.27774	-0.623409
O	O	0.82472	0.09443	0.07408	-0.62504
O	O	0.35817	0.09644	0.27347	-0.621505
O	O	0.02093	0.09042	0.74452	-0.628218
O	O	0.00661	0.74442	0.92861	-0.624188
O	O	0.67464	0.74443	0.7469	-0.62477
O	O	0.82786	0.74596	0.08307	-0.617887
O	O	0.35453	0.2776	0.27229	-0.627319
O	O	0.19605	0.27409	0.92384	-0.629705
O	O	0.82479	0.09009	0.74049	-0.634582
O	O	0.01954	0.09635	0.27401	-0.619576
O	O	0.35412	0.09477	0.07626	-0.622
O	O	0.00749	0.27582	0.08015	-0.634078
