data_crystal

_audit_creation_method 'AiiDA-DDEC plugin'

_cell_length_a        13.45825
_cell_length_b        15.67643
_cell_length_c        11.40497

_cell_angle_alpha     90.00000
_cell_angle_beta     100.79997
_cell_angle_gamma     90.00000

_symmetry_space_group_name_Hall 'P 1'
_symmetry_space_group_name_H-M  'P 1'

loop_
_symmetry_equiv_pos_as_xyz
 'x,y,z'
 
loop_
_atom_site_label
_atom_site_type_symbol
_atom_site_fract_x
_atom_site_fract_y
_atom_site_fract_z
_atom_site_charge
Zn         Zn      0.19201   0.50000   0.07764   0.97733
Zn         Zn      0.30799   0.50000   0.92236   0.97726
Zn         Zn      0.80799   0.50000   0.92236   0.97728
Zn         Zn      0.69201   0.50000   0.07764   0.97729
H          H       0.28990   0.26530   0.27220   0.10919
H          H       0.37903   0.13361   0.35790   0.10257
H          H       0.44589   0.00000   0.23519   0.12413
H          H       0.28990   0.73471   0.27220   0.10914
H          H       0.37903   0.86639   0.35790   0.10269
H          H       0.21010   0.26530   0.72781   0.10917
H          H       0.12097   0.13361   0.64210   0.10249
H          H       0.05411   0.00000   0.76482   0.12408
H          H       0.21010   0.73471   0.72781   0.10915
H          H       0.12097   0.86639   0.64210   0.10257
H          H       0.63284   0.19822   0.19515   0.11253
H          H       0.54100   0.32638   0.10306   0.11770
H          H       0.66986   0.21734   0.42822   0.11550
H          H       0.86716   0.19822   0.80485   0.11261
H          H       0.95900   0.32638   0.89694   0.11770
H          H       0.83014   0.21734   0.57178   0.11553
H          H       0.86716   0.80178   0.80485   0.11265
H          H       0.95900   0.67362   0.89694   0.11770
H          H       0.83014   0.78266   0.57178   0.11544
H          H       0.63284   0.80178   0.19515   0.11253
H          H       0.54100   0.67362   0.10306   0.11766
H          H       0.66986   0.78266   0.42822   0.11539
H          H       0.13284   0.19822   0.19515   0.11254
H          H       0.04100   0.32638   0.10306   0.11772
H          H       0.16986   0.21734   0.42822   0.11548
H          H       0.36716   0.19822   0.80485   0.11260
H          H       0.45900   0.32638   0.89694   0.11767
H          H       0.33014   0.21734   0.57178   0.11553
H          H       0.36716   0.80178   0.80485   0.11263
H          H       0.45900   0.67362   0.89694   0.11767
H          H       0.33014   0.78266   0.57178   0.11543
H          H       0.13284   0.80178   0.19515   0.11257
H          H       0.04100   0.67362   0.10306   0.11767
H          H       0.16986   0.78266   0.42822   0.11542
H          H       0.78990   0.26530   0.27219   0.10918
H          H       0.87903   0.13361   0.35790   0.10262
H          H       0.94589   0.00000   0.23519   0.12412
H          H       0.78990   0.73471   0.27219   0.10915
H          H       0.87903   0.86639   0.35790   0.10269
H          H       0.71010   0.26530   0.72780   0.10914
H          H       0.62097   0.13361   0.64210   0.10250
H          H       0.55411   0.00000   0.76482   0.12415
H          H       0.71010   0.73471   0.72780   0.10912
H          H       0.62097   0.86639   0.64210   0.10257
C          C       0.35285   0.37885   0.12367   0.58695
C          C       0.40963   0.30391   0.18232  -0.04766
C          C       0.36458   0.24963   0.25505  -0.08737
C          C       0.41471   0.17629   0.30313  -0.14060
C          C       0.35285   0.62115   0.12367   0.58690
C          C       0.40963   0.69609   0.18232  -0.04772
C          C       0.36458   0.75037   0.25505  -0.08720
C          C       0.41471   0.82371   0.30313  -0.14072
C          C       0.14715   0.37885   0.87633   0.58704
C          C       0.09037   0.30391   0.81768  -0.04782
C          C       0.13542   0.24963   0.74495  -0.08729
C          C       0.08529   0.17629   0.69687  -0.14064
C          C       0.14715   0.62115   0.87633   0.58702
C          C       0.09037   0.69609   0.81768  -0.04771
C          C       0.13542   0.75037   0.74495  -0.08734
C          C       0.08529   0.82371   0.69687  -0.14056
C          C       0.51233   0.15748   0.28357   0.08232
C          C       0.55796   0.21307   0.21258  -0.13824
C          C       0.50669   0.28497   0.16094  -0.09014
C          C       0.56356   0.07820   0.33356   0.02690
C          C       0.51768   0.00000   0.29774  -0.18029
C          C       0.65730   0.07933   0.41473   0.01745
C          C       0.70366   0.00000   0.45725  -0.00462
C          C       0.70567   0.15722   0.45932  -0.12686
C          C       0.98766   0.15748   0.71643   0.08233
C          C       0.94204   0.21307   0.78742  -0.13823
C          C       0.99330   0.28497   0.83906  -0.09004
C          C       0.93643   0.07820   0.66644   0.02694
C          C       0.98232   0.00000   0.70226  -0.18033
C          C       0.84270   0.07933   0.58528   0.01742
C          C       0.79633   0.00000   0.54275  -0.00466
C          C       0.79433   0.15722   0.54069  -0.12695
C          C       0.98766   0.84253   0.71643   0.08224
C          C       0.94204   0.78693   0.78742  -0.13818
C          C       0.99330   0.71503   0.83906  -0.09021
C          C       0.93643   0.92181   0.66644   0.02707
C          C       0.84270   0.92067   0.58528   0.01742
C          C       0.79433   0.84278   0.54069  -0.12699
C          C       0.51233   0.84253   0.28357   0.08229
C          C       0.55796   0.78693   0.21258  -0.13813
C          C       0.50669   0.71503   0.16094  -0.09017
C          C       0.56356   0.92181   0.33356   0.02703
C          C       0.65730   0.92067   0.41473   0.01743
C          C       0.70567   0.84278   0.45932  -0.12679
C          C       0.01233   0.15748   0.28357   0.08227
C          C       0.05796   0.21307   0.21259  -0.13819
C          C       0.00670   0.28497   0.16094  -0.09020
C          C       0.06356   0.07820   0.33356   0.02690
C          C       0.01768   0.00000   0.29774  -0.18030
C          C       0.15730   0.07933   0.41473   0.01748
C          C       0.20366   0.00000   0.45725  -0.00462
C          C       0.20567   0.15722   0.45932  -0.12682
C          C       0.48767   0.15748   0.71644   0.08235
C          C       0.44204   0.21307   0.78742  -0.13825
C          C       0.49330   0.28497   0.83906  -0.08999
C          C       0.43644   0.07820   0.66645   0.02694
C          C       0.48232   0.00000   0.70226  -0.18038
C          C       0.34270   0.07933   0.58528   0.01742
C          C       0.29633   0.00000   0.54275  -0.00464
C          C       0.29433   0.15722   0.54069  -0.12697
C          C       0.48766   0.84253   0.71644   0.08229
C          C       0.44204   0.78693   0.78742  -0.13823
C          C       0.49330   0.71503   0.83906  -0.09005
C          C       0.43644   0.92181   0.66645   0.02709
C          C       0.34270   0.92067   0.58528   0.01741
C          C       0.29433   0.84278   0.54069  -0.12689
C          C       0.01233   0.84253   0.28357   0.08233
C          C       0.05796   0.78693   0.21259  -0.13816
C          C       0.00670   0.71503   0.16094  -0.09026
C          C       0.06356   0.92181   0.33356   0.02701
C          C       0.15730   0.92067   0.41473   0.01741
C          C       0.20567   0.84278   0.45932  -0.12691
C          C       0.85285   0.37885   0.12366   0.58696
C          C       0.90963   0.30391   0.18232  -0.04772
C          C       0.86458   0.24963   0.25505  -0.08720
C          C       0.91470   0.17629   0.30313  -0.14077
C          C       0.85285   0.62115   0.12366   0.58693
C          C       0.90963   0.69609   0.18232  -0.04771
C          C       0.86458   0.75037   0.25505  -0.08722
C          C       0.91470   0.82371   0.30313  -0.14072
C          C       0.64715   0.37885   0.87633   0.58707
C          C       0.59037   0.30391   0.81768  -0.04777
C          C       0.63542   0.24963   0.74495  -0.08732
C          C       0.58529   0.17629   0.69687  -0.14062
C          C       0.64715   0.62115   0.87633   0.58702
C          C       0.59037   0.69609   0.81768  -0.04777
C          C       0.63542   0.75037   0.74495  -0.08730
C          C       0.58529   0.82371   0.69687  -0.14060
O          O       0.27572   0.40471   0.16519  -0.54788
O          O       0.38457   0.41122   0.03426  -0.55054
O          O       0.27572   0.59529   0.16519  -0.54788
O          O       0.38457   0.58879   0.03426  -0.55058
O          O       0.22429   0.40471   0.83481  -0.54799
O          O       0.11543   0.41122   0.96573  -0.55054
O          O       0.22429   0.59529   0.83481  -0.54798
O          O       0.11543   0.58879   0.96573  -0.55059
O          O       0.77571   0.40471   0.16519  -0.54788
O          O       0.88457   0.41122   0.03426  -0.55058
O          O       0.77571   0.59529   0.16519  -0.54786
O          O       0.88457   0.58879   0.03426  -0.55061
O          O       0.72428   0.40471   0.83481  -0.54803
O          O       0.61543   0.41122   0.96573  -0.55052
O          O       0.72428   0.59529   0.83481  -0.54801
O          O       0.61543   0.58879   0.96573  -0.55054
